*SPEF "IEEE 1481.1999"
*DESIGN "address_gen"
*DATE "12:24:33 Wednesday May 04, 2022"
*VENDOR "unknown"
*PROGRAM "qrouter"
*VERSION "unknown"
*DESIGN_FLOW "qflow"
*DIVIDER /
*DELIMITER :
*BUS_DELIMITER <>
*T_UNIT 1 PS
*C_UNIT 1 FF
*R_UNIT 1 OHM
*L_UNIT 1 HENRY

*NAME_MAP
*1 clock_bF_buf4
*2 CLKBUF1_1
*3 DFFPOSX1_15
*4 DFFPOSX1_25
*5 DFFPOSX1_16
*6 DFFPOSX1_8
*7 DFFPOSX1_10
*8 DFFPOSX1_31
*9 DFFPOSX1_30
*10 clock_bF_buf3
*11 CLKBUF1_2
*12 DFFPOSX1_21
*13 DFFPOSX1_23
*14 DFFPOSX1_24
*15 DFFPOSX1_27
*16 DFFPOSX1_26
*17 DFFPOSX1_29
*18 DFFPOSX1_28
*19 address_enable
*20 OAI21X1_13
*21 NAND2X1_6
*22 AND2X2_7
*23 OAI21X1_3
*24 INVX1_5
*25 NAND2X1_18
*26 AND2X2_4
*27 reset
*28 NOR3X1_3
*29 AOI21X1_11
*30 AOI21X1_9
*31 INVX1_2
*32 NOR2X1_23
*33 AOI21X1_20
*34 OR2X2_3
*35 _7_
*36 NOR2X1_7
*37 NOR2X1_8
*38 NAND3X1_6
*39 NAND3X1_7
*40 AOI21X1_3
*41 OAI21X1_6
*42 AOI21X1_4
*43 INVX1_6
*44 clock_bF_buf2
*45 CLKBUF1_3
*46 DFFPOSX1_2
*47 DFFPOSX1_18
*48 DFFPOSX1_19
*49 DFFPOSX1_20
*50 DFFPOSX1_22
*51 DFFPOSX1_3
*52 clock_bF_buf1
*53 CLKBUF1_4
*54 DFFPOSX1_9
*55 DFFPOSX1_1
*56 DFFPOSX1_4
*57 DFFPOSX1_12
*58 DFFPOSX1_11
*59 DFFPOSX1_14
*60 clock_bF_buf0
*61 CLKBUF1_5
*62 DFFPOSX1_5
*63 DFFPOSX1_13
*64 DFFPOSX1_7
*65 DFFPOSX1_17
*66 DFFPOSX1_6
*67 DFFPOSX1_32
*68 _93__bF_buf4
*69 BUFX2_1
*70 OAI21X1_1
*71 OAI21X1_23
*72 OAI21X1_8
*73 NAND2X1_8
*74 OAI21X1_7
*75 OAI21X1_6
*76 _112_[4]
*77 DFFPOSX1_21
*78 OAI21X1_16
*79 AOI21X1_16
*80 AOI21X1_17
*81 AND2X2_3
*82 NAND2X1_5
*83 BUFX2_26
*84 _112_[2]
*85 DFFPOSX1_19
*86 OAI21X1_14
*87 AOI21X1_14
*88 AOI21X1_15
*89 BUFX2_24
*90 AND2X2_5
*91 NAND2X1_7
*92 _90_
*93 NAND3X1_1
*94 NAND2X1_21
*95 OAI21X1_17
*96 AOI21X1_18
*97 OAI21X1_18
*98 OAI21X1_19
*99 NOR3X1_1
*100 _101_
*101 NOR2X1_3
*102 AOI21X1_16
*103 AOI21X1_17
*104 NAND2X1_22
*105 NAND3X1_8
*106 NAND3X1_3
*107 OAI21X1_16
*108 _102_
*109 NAND3X1_3
*110 NOR3X1_2
*111 AOI21X1_22
*112 OAI21X1_2
*113 OAI21X1_1
*114 NOR2X1_4
*115 OAI21X1_23
*116 clock
*117 CLKBUF1_5
*118 CLKBUF1_2
*119 CLKBUF1_1
*120 CLKBUF1_3
*121 CLKBUF1_4
*122 _93_
*123 INVX1_2
*124 BUFX2_3
*125 BUFX2_5
*126 BUFX2_1
*127 BUFX2_4
*128 BUFX2_2
*129 _93__bF_buf3
*130 BUFX2_2
*131 OAI21X1_9
*132 AND2X2_6
*133 OAI21X1_5
*134 OAI21X1_4
*135 OAI21X1_10
*136 _93__bF_buf2
*137 BUFX2_3
*138 NAND2X1_21
*139 OAI21X1_15
*140 OAI21X1_13
*141 OAI21X1_14
*142 OAI21X1_3
*143 _93__bF_buf1
*144 BUFX2_4
*145 OAI21X1_20
*146 OAI21X1_16
*147 OAI21X1_17
*148 OAI21X1_22
*149 AND2X2_12
*150 _93__bF_buf0
*151 BUFX2_5
*152 NAND2X1_20
*153 OAI21X1_12
*154 NAND2X1_14
*155 OAI21X1_11
*156 NAND2X1_16
*157 _88_
*158 AND2X2_4
*159 AOI21X1_14
*160 NOR2X1_20
*161 OAI21X1_14
*162 AOI21X1_15
*163 NAND3X1_1
*164 _112_[13]
*165 DFFPOSX1_30
*166 BUFX2_35
*167 NAND3X1_4
*168 INVX1_21
*169 AOI21X1_23
*170 NAND3X1_2
*171 _112_[12]
*172 DFFPOSX1_29
*173 BUFX2_34
*174 NAND3X1_4
*175 INVX1_20
*176 AOI21X1_23
*177 NAND3X1_2
*178 _111_[4]
*179 DFFPOSX1_5
*180 AOI21X1_3
*181 AOI21X1_4
*182 NAND2X1_10
*183 OAI21X1_6
*184 BUFX2_10
*185 _111_[6]
*186 DFFPOSX1_7
*187 BUFX2_12
*188 NAND2X1_11
*189 AOI21X1_6
*190 AOI21X1_5
*191 OAI21X1_8
*192 _111_[8]
*193 DFFPOSX1_9
*194 BUFX2_14
*195 AOI21X1_7
*196 OAI21X1_10
*197 AOI21X1_8
*198 NAND2X1_13
*199 _35_
*200 NAND3X1_7
*201 NAND2X1_16
*202 OAI21X1_11
*203 NOR2X1_16
*204 OR2X2_2
*205 AOI21X1_11
*206 _112_[9]
*207 DFFPOSX1_26
*208 NAND2X1_3
*209 INVX1_17
*210 AND2X2_1
*211 BUFX2_31
*212 _112_[8]
*213 DFFPOSX1_25
*214 INVX1_16
*215 NAND2X1_3
*216 AND2X2_1
*217 BUFX2_30
*218 _112_[11]
*219 DFFPOSX1_28
*220 NAND2X1_4
*221 AND2X2_2
*222 BUFX2_33
*223 INVX1_19
*224 _112_[10]
*225 DFFPOSX1_27
*226 INVX1_18
*227 BUFX2_32
*228 NAND2X1_4
*229 AND2X2_2
*230 _112_[5]
*231 DFFPOSX1_22
*232 AOI21X1_17
*233 NAND2X1_5
*234 BUFX2_27
*235 AND2X2_3
*236 _112_[1]
*237 DFFPOSX1_18
*238 OAI21X1_13
*239 NAND2X1_6
*240 AND2X2_4
*241 BUFX2_23
*242 _112_[3]
*243 DFFPOSX1_20
*244 NAND2X1_7
*245 AOI21X1_15
*246 AND2X2_5
*247 BUFX2_25
*248 _111_[1]
*249 DFFPOSX1_2
*250 BUFX2_7
*251 AND2X2_7
*252 OAI21X1_3
*253 NAND3X1_5
*254 _111_[2]
*255 DFFPOSX1_3
*256 OAI21X1_4
*257 NAND2X1_9
*258 NAND3X1_5
*259 BUFX2_8
*260 _19_
*261 NOR2X1_11
*262 AND2X2_11
*263 NAND3X1_7
*264 NAND3X1_6
*265 NAND2X1_12
*266 _66_
*267 NAND2X1_22
*268 AOI21X1_19
*269 OAI21X1_20
*270 OAI21X1_21
*271 OAI21X1_22
*272 _112_[14]
*273 DFFPOSX1_31
*274 INVX1_1
*275 NAND3X1_4
*276 BUFX2_36
*277 _112_[7]
*278 DFFPOSX1_24
*279 BUFX2_29
*280 NAND2X1_2
*281 INVX1_15
*282 _112_[6]
*283 DFFPOSX1_23
*284 BUFX2_28
*285 INVX1_14
*286 NAND2X1_2
*287 _86_
*288 NAND2X1_2
*289 OAI21X1_19
*290 NOR2X1_2
*291 NOR3X1_1
*292 _98_
*293 NOR2X1_2
*294 NAND2X1_22
*295 NAND3X1_8
*296 NAND3X1_3
*297 _103_
*298 NAND3X1_4
*299 NOR2X1_4
*300 OAI21X1_2
*301 OAI21X1_1
*302 _112_[15]
*303 DFFPOSX1_32
*304 AOI21X1_2
*305 BUFX2_37
*306 INVX1_3
*307 _109_
*308 AND2X2_7
*309 OAI21X1_4
*310 NAND2X1_9
*311 NOR2X1_5
*312 _5_
*313 INVX1_5
*314 NOR2X1_13
*315 OAI21X1_9
*316 NOR2X1_7
*317 _111_[3]
*318 DFFPOSX1_4
*319 OAI21X1_5
*320 NAND3X1_5
*321 BUFX2_9
*322 _111_[5]
*323 DFFPOSX1_6
*324 BUFX2_11
*325 NAND2X1_10
*326 AOI21X1_4
*327 _12_
*328 NAND2X1_10
*329 OAI21X1_7
*330 NOR2X1_10
*331 NOR2X1_11
*332 _14_
*333 NOR2X1_10
*334 AOI21X1_5
*335 OAI21X1_8
*336 AOI21X1_6
*337 _111_[7]
*338 DFFPOSX1_8
*339 BUFX2_13
*340 NAND2X1_11
*341 AOI21X1_6
*342 _22_
*343 NOR2X1_13
*344 OAI21X1_10
*345 AOI21X1_7
*346 AOI21X1_8
*347 _111_[9]
*348 DFFPOSX1_10
*349 NAND2X1_13
*350 BUFX2_15
*351 AOI21X1_8
*352 _27_
*353 NAND3X1_6
*354 AOI21X1_9
*355 OR2X2_1
*356 NAND2X1_14
*357 _111_[10]
*358 DFFPOSX1_11
*359 NAND2X1_15
*360 INVX1_9
*361 BUFX2_16
*362 _111_[11]
*363 DFFPOSX1_12
*364 INVX1_10
*365 NAND2X1_15
*366 BUFX2_17
*367 _111_[12]
*368 DFFPOSX1_13
*369 NAND2X1_17
*370 INVX1_11
*371 BUFX2_18
*372 _111_[13]
*373 DFFPOSX1_14
*374 NAND2X1_17
*375 BUFX2_19
*376 INVX1_12
*377 _41_
*378 NAND2X1_17
*379 OAI21X1_11
*380 NOR2X1_16
*381 NOR2X1_18
*382 _111_[14]
*383 DFFPOSX1_15
*384 NOR2X1_17
*385 NAND2X1_18
*386 BUFX2_20
*387 _49_
*388 NAND2X1_19
*389 NAND2X1_20
*390 OAI21X1_12
*391 AOI21X1_13
*392 _60_
*393 INVX1_14
*394 AOI21X1_18
*395 OAI21X1_18
*396 OAI21X1_17
*397 _65_
*398 INVX1_16
*399 OAI21X1_21
*400 AOI21X1_19
*401 OAI21X1_20
*402 _70_
*403 NAND3X1_8
*404 AND2X2_12
*405 AOI21X1_20
*406 OR2X2_4
*407 _77_
*408 INVX1_20
*409 OAI21X1_23
*410 AOI21X1_22
*411 NOR3X1_2
*412 _83_
*413 AND2X2_1
*414 NAND2X1_1
*415 NAND3X1_8
*416 _85_
*417 NAND2X1_1
*418 OAI21X1_22
*419 NOR3X1_1
*420 _91_
*421 NOR3X1_1
*422 NAND3X1_2
*423 AOI21X1_23
*424 _99_
*425 NAND2X1_6
*426 OAI21X1_15
*427 NOR2X1_3
*428 _100_
*429 NAND2X1_7
*430 NOR2X1_3
*431 OAI21X1_15
*432 _111_[0]
*433 DFFPOSX1_1
*434 BUFX2_6
*435 AND2X2_6
*436 _3_
*437 INVX1_4
*438 OAI21X1_5
*439 NOR2X1_6
*440 _6_
*441 NAND3X1_5
*442 NOR2X1_7
*443 INVX1_7
*444 _11_
*445 INVX1_6
*446 NOR2X1_10
*447 OAI21X1_7
*448 _17_
*449 INVX1_7
*450 AND2X2_10
*451 NAND2X1_12
*452 _20_
*453 NAND2X1_12
*454 OAI21X1_9
*455 NOR2X1_13
*456 _25_
*457 NAND2X1_13
*458 INVX1_8
*459 NOR2X1_15
*460 _29_
*461 INVX1_9
*462 OR2X2_1
*463 AOI21X1_9
*464 _30_
*465 OR2X2_1
*466 AND2X2_8
*467 AOI21X1_10
*468 _34_
*469 NOR2X1_15
*470 AND2X2_11
*471 NAND3X1_7
*472 _37_
*473 INVX1_11
*474 OR2X2_2
*475 AOI21X1_11
*476 _38_
*477 OR2X2_2
*478 AOI21X1_12
*479 AND2X2_9
*480 _111_[15]
*481 DFFPOSX1_16
*482 INVX1_13
*483 BUFX2_21
*484 _51_
*485 INVX1_13
*486 OAI21X1_12
*487 AOI21X1_13
*488 _112_[0]
*489 DFFPOSX1_17
*490 BUFX2_22
*491 OR2X2_3
*492 _72_
*493 INVX1_18
*494 AOI21X1_20
*495 OR2X2_4
*496 _73_
*497 OR2X2_4
*498 AND2X2_14
*499 AOI21X1_21
*500 _82_
*501 INVX1_1
*502 AOI21X1_1
*503 _84_
*504 AND2X2_2
*505 NAND2X1_1
*506 _87_
*507 AND2X2_3
*508 NAND3X1_1
*509 _89_
*510 AND2X2_5
*511 NAND3X1_1
*512 _92_
*513 NAND3X1_2
*514 AOI21X1_1
*515 _94_
*516 NAND2X1_3
*517 NOR2X1_1
*518 _95_
*519 NAND2X1_4
*520 NOR2X1_1
*521 _96_
*522 NOR2X1_1
*523 NAND3X1_3
*524 _97_
*525 NAND2X1_5
*526 NOR2X1_2
*527 _104_
*528 OAI21X1_1
*529 AOI21X1_1
*530 _1_[14]
*531 AOI21X1_1
*532 DFFPOSX1_31
*533 _105_
*534 NOR2X1_4
*535 AOI21X1_2
*536 _106_
*537 INVX1_3
*538 OAI21X1_2
*539 _107_
*540 OAI21X1_2
*541 NAND2X1_8
*542 _108_
*543 NAND2X1_8
*544 AOI21X1_2
*545 _1_[15]
*546 AOI21X1_2
*547 DFFPOSX1_32
*548 _0_[0]
*549 AND2X2_6
*550 DFFPOSX1_1
*551 _110_
*552 OAI21X1_3
*553 NOR2X1_5
*554 _0_[1]
*555 NOR2X1_5
*556 DFFPOSX1_2
*557 _2_
*558 NAND2X1_9
*559 INVX1_4
*560 _4_
*561 OAI21X1_4
*562 NOR2X1_6
*563 _0_[2]
*564 NOR2X1_6
*565 DFFPOSX1_3
*566 _8_
*567 OAI21X1_5
*568 NOR2X1_8
*569 _0_[3]
*570 NOR2X1_8
*571 DFFPOSX1_4
*572 _9_
*573 OAI21X1_6
*574 AOI21X1_3
*575 _0_[4]
*576 AOI21X1_3
*577 DFFPOSX1_5
*578 _10_
*579 AOI21X1_4
*580 NOR2X1_9
*581 _13_
*582 OAI21X1_7
*583 NOR2X1_9
*584 _0_[5]
*585 NOR2X1_9
*586 DFFPOSX1_6
*587 _15_
*588 OAI21X1_8
*589 AOI21X1_5
*590 _0_[6]
*591 AOI21X1_5
*592 DFFPOSX1_7
*593 _16_
*594 AOI21X1_6
*595 NOR2X1_12
*596 _18_
*597 NAND2X1_11
*598 NOR2X1_11
*599 _21_
*600 OAI21X1_9
*601 NOR2X1_12
*602 _0_[7]
*603 NOR2X1_12
*604 DFFPOSX1_8
*605 _23_
*606 OAI21X1_10
*607 AOI21X1_7
*608 _0_[8]
*609 AOI21X1_7
*610 DFFPOSX1_9
*611 _24_
*612 AOI21X1_8
*613 NOR2X1_14
*614 _26_
*615 INVX1_8
*616 NAND3X1_6
*617 _28_
*618 NAND2X1_14
*619 NOR2X1_14
*620 _0_[9]
*621 NOR2X1_14
*622 DFFPOSX1_10
*623 _31_
*624 AOI21X1_9
*625 AND2X2_8
*626 _0_[10]
*627 AND2X2_8
*628 DFFPOSX1_11
*629 _32_
*630 INVX1_10
*631 AOI21X1_10
*632 _33_
*633 NAND2X1_15
*634 NOR2X1_15
*635 _36_
*636 NAND2X1_16
*637 AOI21X1_10
*638 _0_[11]
*639 AOI21X1_10
*640 DFFPOSX1_12
*641 _39_
*642 AOI21X1_11
*643 AND2X2_9
*644 _0_[12]
*645 AND2X2_9
*646 DFFPOSX1_13
*647 _40_
*648 INVX1_12
*649 AOI21X1_12
*650 _42_
*651 OAI21X1_11
*652 AOI21X1_12
*653 _0_[13]
*654 AOI21X1_12
*655 DFFPOSX1_14
*656 _43_
*657 NOR2X1_16
*658 NOR2X1_17
*659 _44_
*660 NOR2X1_17
*661 NOR2X1_19
*662 _45_
*663 NAND2X1_18
*664 NOR2X1_18
*665 _46_
*666 NOR2X1_18
*667 AND2X2_10
*668 _47_
*669 AND2X2_10
*670 NAND2X1_19
*671 _48_
*672 AND2X2_11
*673 NAND2X1_19
*674 _50_
*675 NAND2X1_20
*676 NOR2X1_19
*677 _0_[14]
*678 NOR2X1_19
*679 DFFPOSX1_15
*680 _52_
*681 OAI21X1_12
*682 AOI21X1_13
*683 _0_[15]
*684 AOI21X1_13
*685 DFFPOSX1_16
*686 _1_[0]
*687 OR2X2_3
*688 DFFPOSX1_17
*689 _53_
*690 OAI21X1_13
*691 NOR2X1_20
*692 _1_[1]
*693 NOR2X1_20
*694 DFFPOSX1_18
*695 _54_
*696 OAI21X1_14
*697 AOI21X1_14
*698 _1_[2]
*699 AOI21X1_14
*700 DFFPOSX1_19
*701 _55_
*702 AOI21X1_15
*703 NOR2X1_21
*704 _56_
*705 OAI21X1_15
*706 NOR2X1_21
*707 _1_[3]
*708 NOR2X1_21
*709 DFFPOSX1_20
*710 _57_
*711 OAI21X1_16
*712 AOI21X1_16
*713 _1_[4]
*714 AOI21X1_16
*715 DFFPOSX1_21
*716 _58_
*717 AOI21X1_17
*718 NOR2X1_22
*719 _59_
*720 NAND2X1_21
*721 NOR2X1_22
*722 _1_[5]
*723 NOR2X1_22
*724 DFFPOSX1_22
*725 _61_
*726 OAI21X1_17
*727 AOI21X1_18
*728 _1_[6]
*729 AOI21X1_18
*730 DFFPOSX1_23
*731 _62_
*732 INVX1_15
*733 OAI21X1_18
*734 _63_
*735 OAI21X1_18
*736 OAI21X1_19
*737 _64_
*738 OAI21X1_19
*739 NOR2X1_23
*740 _1_[7]
*741 NOR2X1_23
*742 DFFPOSX1_24
*743 _67_
*744 OAI21X1_20
*745 AOI21X1_19
*746 _1_[8]
*747 AOI21X1_19
*748 DFFPOSX1_25
*749 _68_
*750 INVX1_17
*751 OAI21X1_21
*752 _69_
*753 OAI21X1_21
*754 AND2X2_13
*755 _71_
*756 AND2X2_12
*757 AND2X2_13
*758 _1_[9]
*759 AND2X2_13
*760 DFFPOSX1_26
*761 _74_
*762 AOI21X1_20
*763 AND2X2_14
*764 _1_[10]
*765 AND2X2_14
*766 DFFPOSX1_27
*767 _75_
*768 INVX1_19
*769 AOI21X1_21
*770 _76_
*771 OAI21X1_22
*772 AOI21X1_21
*773 _1_[11]
*774 AOI21X1_21
*775 DFFPOSX1_28
*776 _78_
*777 OAI21X1_23
*778 AOI21X1_22
*779 _1_[12]
*780 AOI21X1_22
*781 DFFPOSX1_29
*782 _79_
*783 INVX1_21
*784 NOR3X1_2
*785 _80_
*786 NOR3X1_2
*787 NOR3X1_3
*788 _81_
*789 AOI21X1_23
*790 NOR3X1_3
*791 _1_[13]
*792 NOR3X1_3
*793 DFFPOSX1_30
*794 address_a[0]
*795 BUFX2_6
*796 address_a[1]
*797 BUFX2_7
*798 address_a[2]
*799 BUFX2_8
*800 address_a[3]
*801 BUFX2_9
*802 address_a[4]
*803 BUFX2_10
*804 address_a[5]
*805 BUFX2_11
*806 address_a[6]
*807 BUFX2_12
*808 address_a[7]
*809 BUFX2_13
*810 address_a[8]
*811 BUFX2_14
*812 address_a[9]
*813 BUFX2_15
*814 address_a[10]
*815 BUFX2_16
*816 address_a[11]
*817 BUFX2_17
*818 address_a[12]
*819 BUFX2_18
*820 address_a[13]
*821 BUFX2_19
*822 address_a[14]
*823 BUFX2_20
*824 address_a[15]
*825 BUFX2_21
*826 address_b[0]
*827 BUFX2_22
*828 address_b[1]
*829 BUFX2_23
*830 address_b[2]
*831 BUFX2_24
*832 address_b[3]
*833 BUFX2_25
*834 address_b[4]
*835 BUFX2_26
*836 address_b[5]
*837 BUFX2_27
*838 address_b[6]
*839 BUFX2_28
*840 address_b[7]
*841 BUFX2_29
*842 address_b[8]
*843 BUFX2_30
*844 address_b[9]
*845 BUFX2_31
*846 address_b[10]
*847 BUFX2_32
*848 address_b[11]
*849 BUFX2_33
*850 address_b[12]
*851 BUFX2_34
*852 address_b[13]
*853 BUFX2_35
*854 address_b[14]
*855 BUFX2_36
*856 address_b[15]
*857 BUFX2_37

*PORTS
*19 I
*27 I
*116 I
*794 O
*796 O
*798 O
*800 O
*802 O
*804 O
*806 O
*808 O
*810 O
*812 O
*814 O
*816 O
*818 O
*820 O
*822 O
*824 O
*826 O
*828 O
*830 O
*832 O
*834 O
*836 O
*838 O
*840 O
*842 O
*844 O
*846 O
*848 O
*850 O
*852 O
*854 O
*856 O

*D_NET *1 0.00173472
*CONN
*I *2:Y O *D CLKBUF1
*I *3:CLK I *L 0.0405158
*I *4:CLK I *L 0.0405158
*I *5:CLK I *L 0.0405158
*I *6:CLK I *L 0.0405158
*I *7:CLK I *L 0.0405158
*I *8:CLK I *L 0.0405158
*I *9:CLK I *L 0.0405158
*CAP
1 1_1 0.00010824
2 1_2 0.0001224
3 1_3 8.088e-05
4 1_4 0.0001632
5 1_5 0.00031824
6 1_6 2.04e-05
7 1_7 4.08e-05
8 1_8 0.0002448
9 1_9 2.04e-05
10 1_10 8.784e-05
11 1_11 0.00011472
12 1_12 0.0004128
*RES
1 *2:Y 1_1 2.00667
2 1_1 1_2 1.4
3 1_2 *3:CLK 0
4 1_1 1_3 1.91333
5 1_3 1_4 1.86667
6 1_4 *4:CLK 0
7 1_3 1_5 3.64
8 1_5 1_6 0.233333
9 1_6 *5:CLK 0
10 1_6 1_7 0.466667
11 1_7 1_8 2.8
12 1_8 1_9 0.233333
13 1_9 *6:CLK 0
14 1_9 1_10 1.77333
15 1_10 *7:CLK 0
16 1_7 1_11 2.52
17 1_11 *8:CLK 0
18 1_11 1_12 7.46667
19 1_12 *9:CLK 0
*END
*D_NET *10 0.00141816
*CONN
*I *11:Y O *D CLKBUF1
*I *12:CLK I *L 0.0405158
*I *13:CLK I *L 0.0405158
*I *14:CLK I *L 0.0405158
*I *15:CLK I *L 0.0405158
*I *16:CLK I *L 0.0405158
*I *17:CLK I *L 0.0405158
*I *18:CLK I *L 0.0405158
*CAP
1 10_1 0.0002628
2 10_2 4.08e-05
3 10_3 7.392e-05
4 10_4 4.08e-05
5 10_5 0.00023016
6 10_6 2.04e-05
7 10_7 0.00012144
8 10_8 0
9 10_9 0.00038712
10 10_10 6.12e-05
11 10_11 0.00012192
12 10_12 5.76e-05
*RES
1 *11:Y 10_1 3.16667
2 10_1 10_2 0.466667
3 10_2 *12:CLK 0
4 10_1 10_3 2.05333
5 10_3 10_4 0.466667
6 10_4 *13:CLK 0
7 10_3 10_5 4.06
8 10_5 10_6 0.233333
9 10_6 *14:CLK 0
10 10_6 10_7 2.70667
11 10_7 10_8 0
12 10_8 *15:CLK 0
13 10_8 10_9 5.08667
14 10_9 10_10 0.7
15 10_10 *16:CLK 0
16 10_9 10_11 2.05333
17 10_11 *17:CLK 0
18 10_8 10_12 0.373333
19 10_12 *18:CLK 0
*END
*D_NET *19 0.00192216
*CONN
*P *19 O
*I *20:B I *L 0.0270702
*I *21:B I *L 0.0180112
*I *22:A I *L 0.0180033
*I *23:A I *L 0.0265312
*I *24:A I *L 0.0134094
*I *25:A I *L 0.0177118
*I *26:B I *L 0.0177358
*CAP
1 19_1 0.00021624
2 19_2 0.0001836
3 19_3 2.04e-05
4 19_4 4.92e-05
5 19_5 3.36e-05
6 19_6 0.00029184
7 19_7 2.04e-05
8 19_8 4.92e-05
9 19_9 0.00020328
10 19_10 0.00048936
11 19_11 0.00010176
12 19_12 0.00024288
13 19_13 2.04e-05
*RES
1 *19 19_1 2.47333
2 19_1 19_2 2.1
3 19_2 19_3 0.233333
4 19_3 *20:B 0
5 19_3 19_4 0.7
6 19_4 19_5 0.933333
7 19_5 *21:B 0
8 19_4 19_6 4.10667
9 19_6 19_7 0.233333
10 19_7 *22:A 0
11 19_7 19_8 0.7
12 19_8 19_9 3.31333
13 19_9 *23:A 0
14 19_8 19_10 5.92667
15 19_10 19_11 1.49333
16 19_11 *24:A 0
17 19_10 19_12 5.41333
18 19_12 *25:A 0
19 19_1 19_13 0.233333
20 19_13 *26:B 0
*END
*D_NET *27 0.00354984
*CONN
*P *27 O
*I *28:A I *L 0.0310602
*I *29:C I *L 0.02277
*I *30:C I *L 0.02277
*I *31:A I *L 0.0134094
*I *32:A I *L 0.0222369
*I *33:C I *L 0.02277
*I *34:A I *L 0.0228068
*CAP
1 27_1 0.000102
2 27_2 0.00069312
3 27_3 0.0001224
4 27_4 0.00026904
5 27_5 0.00011424
6 27_6 0.0003264
7 27_7 0.00014112
8 27_8 0.00031176
9 27_9 0.000654
10 27_10 0.00048192
11 27_11 0
12 27_12 0.00031368
13 27_13 2.016e-05
*RES
1 *27 27_1 1.16667
2 27_1 27_2 8.58667
3 27_2 27_3 1.4
4 27_3 *28:A 0
5 27_2 27_4 7.14
6 27_4 27_5 3.17333
7 27_5 27_6 3.73333
8 27_6 *29:C 0
9 27_5 27_7 3.92
10 27_7 27_8 4.99333
11 27_8 *30:C 0
12 27_7 27_9 7.04667
13 27_9 *31:A 0
14 27_4 27_10 4.18667
15 27_10 27_11 0
16 27_11 *32:A 0
17 27_10 27_12 7.04667
18 27_12 *33:C 0
19 27_1 27_13 0.56
20 27_13 *34:A 0
*END
*D_NET *35 0.00146976
*CONN
*I *36:Y O *D NOR2X1
*I *37:A I *L 0.0222369
*I *38:C I *L 0.0226301
*I *39:C I *L 0.0226301
*I *40:B I *L 0.0268633
*I *41:B I *L 0.0270702
*I *42:A I *L 0.0265613
*I *43:A I *L 0.0134094
*CAP
1 35_1 0.00023064
2 35_2 8.64e-05
3 35_3 0
4 35_4 5.376e-05
5 35_5 0
6 35_6 0.00066888
7 35_7 2.04e-05
8 35_8 8.112e-05
9 35_9 0
10 35_10 5.376e-05
11 35_11 5.76e-05
12 35_12 0.0002172
*RES
1 *36:Y 35_1 3.40667
2 35_1 35_2 0.56
3 35_2 *37:A 0
4 35_1 35_3 0
5 35_3 *38:C 0
6 35_1 35_4 1.49333
7 35_4 35_5 0
8 35_5 *39:C 0
9 35_4 35_6 11.7133
10 35_6 35_7 0.233333
11 35_7 *40:B 0
12 35_7 35_8 1.58667
13 35_8 35_9 0
14 35_9 *41:B 0
15 35_8 35_10 1.49333
16 35_10 35_11 0.373333
17 35_11 *42:A 0
18 35_10 35_12 3.03333
19 35_12 *43:A 0
*END
*D_NET *44 0.00095664
*CONN
*I *45:Y O *D CLKBUF1
*I *46:CLK I *L 0.0405158
*I *47:CLK I *L 0.0405158
*I *48:CLK I *L 0.0405158
*I *49:CLK I *L 0.0405158
*I *50:CLK I *L 0.0405158
*I *51:CLK I *L 0.0405158
*CAP
1 44_1 8.4e-06
2 44_2 4.704e-05
3 44_3 0.0002856
4 44_4 2.04e-05
5 44_5 0.0001632
6 44_6 2.04e-05
7 44_7 0.000168
8 44_8 7.392e-05
9 44_9 2.688e-05
10 44_10 0.0001428
*RES
1 *45:Y 44_1 0.233333
2 44_1 44_2 1.30667
3 44_2 *46:CLK 0
4 44_2 44_3 3.26667
5 44_3 44_4 0.233333
6 44_4 *47:CLK 0
7 44_4 44_5 1.86667
8 44_5 44_6 0.233333
9 44_6 *48:CLK 0
10 44_6 44_7 4.66667
11 44_7 *49:CLK 0
12 44_1 44_8 2.05333
13 44_8 44_9 0.746667
14 44_9 *50:CLK 0
15 44_8 44_10 1.63333
16 44_10 *51:CLK 0
*END
*D_NET *52 0.001236
*CONN
*I *53:Y O *D CLKBUF1
*I *54:CLK I *L 0.0405158
*I *55:CLK I *L 0.0405158
*I *56:CLK I *L 0.0405158
*I *57:CLK I *L 0.0405158
*I *58:CLK I *L 0.0405158
*I *59:CLK I *L 0.0405158
*CAP
1 52_1 0.0001632
2 52_2 4.08e-05
3 52_3 0.0004284
4 52_4 2.04e-05
5 52_5 0.0001632
6 52_6 6.72e-05
7 52_7 0
8 52_8 0.0002652
9 52_9 2.04e-05
10 52_10 6.72e-05
*RES
1 *53:Y 52_1 1.86667
2 52_1 52_2 0.466667
3 52_2 *54:CLK 0
4 52_2 52_3 4.9
5 52_3 52_4 0.233333
6 52_4 *55:CLK 0
7 52_4 52_5 1.86667
8 52_5 *56:CLK 0
9 52_1 52_6 1.86667
10 52_6 52_7 0
11 52_7 *57:CLK 0
12 52_7 52_8 3.03333
13 52_8 52_9 0.233333
14 52_9 *58:CLK 0
15 52_9 52_10 1.86667
16 52_10 *59:CLK 0
*END
*D_NET *60 0.00092568
*CONN
*I *61:Y O *D CLKBUF1
*I *62:CLK I *L 0.0405158
*I *63:CLK I *L 0.0405158
*I *64:CLK I *L 0.0405158
*I *65:CLK I *L 0.0405158
*I *66:CLK I *L 0.0405158
*I *67:CLK I *L 0.0405158
*CAP
1 60_1 0.0001632
2 60_2 2.04e-05
3 60_3 4.92e-05
4 60_4 8.736e-05
5 60_5 0.00014784
6 60_6 4.08e-05
7 60_7 7.392e-05
8 60_8 2.016e-05
9 60_9 0.0002652
10 60_10 5.76e-05
*RES
1 *61:Y 60_1 1.86667
2 60_1 60_2 0.233333
3 60_2 *62:CLK 0
4 60_2 60_3 0.7
5 60_3 60_4 2.42667
6 60_4 *63:CLK 0
7 60_3 60_5 4.10667
8 60_5 60_6 0.466667
9 60_6 *64:CLK 0
10 60_5 60_7 2.05333
11 60_7 60_8 0.56
12 60_8 *65:CLK 0
13 60_7 60_9 3.03333
14 60_9 *66:CLK 0
15 60_9 60_10 0.373333
16 60_10 *67:CLK 0
*END
*D_NET *68 0.00146568
*CONN
*I *69:Y O *D BUFX2
*I *70:C I *L 0.0180101
*I *71:C I *L 0.0180101
*I *72:C I *L 0.0180101
*I *73:A I *L 0.0177118
*I *74:C I *L 0.0180101
*I *75:C I *L 0.0180101
*CAP
1 68_1 0.00027696
2 68_2 2.04e-05
3 68_3 0.0001188
4 68_4 0.000204
5 68_5 0.00031872
6 68_6 2.04e-05
7 68_7 9.384e-05
8 68_8 2.04e-05
9 68_9 0.0002712
10 68_10 0
11 68_11 0.00012096
*RES
1 *69:Y 68_1 5.69333
2 68_1 68_2 0.233333
3 68_2 68_3 1.07333
4 68_3 *70:C 0
5 68_2 68_4 2.33333
6 68_4 *71:C 0
7 68_1 68_5 4.85333
8 68_5 68_6 0.233333
9 68_6 *72:C 0
10 68_6 68_7 1.07333
11 68_7 68_8 0.233333
12 68_8 *73:A 0
13 68_8 68_9 4.2
14 68_9 68_10 0
15 68_10 *74:C 0
16 68_9 68_11 3.36
17 68_11 *75:C 0
*END
*D_NET *76 0.0008844
*CONN
*I *77:Q O *D DFFPOSX1
*I *78:A I *L 0.0265312
*I *79:A I *L 0.0265613
*I *80:B I *L 0.0268633
*I *81:B I *L 0.0177358
*I *82:B I *L 0.0180112
*I *83:A I *L 0.0134147
*CAP
1 76_1 2.688e-05
2 76_2 0.00014256
3 76_3 2.04e-05
4 76_4 4.08e-05
5 76_5 5.4e-05
6 76_6 8.4e-06
7 76_7 0
8 76_8 0.0002652
9 76_9 2.016e-05
10 76_10 0.0002244
11 76_11 8.16e-05
*RES
1 *77:Q 76_1 0.746667
2 76_1 76_2 1.96
3 76_2 76_3 0.233333
4 76_3 *78:A 0
5 76_3 76_4 0.466667
6 76_4 76_5 1.16667
7 76_5 76_6 0.233333
8 76_6 76_7 0
9 76_7 *79:A 0
10 76_7 76_8 3.03333
11 76_8 *80:B 0
12 76_6 76_9 0.56
13 76_9 *81:B 0
14 76_4 76_10 2.56667
15 76_10 *82:B 0
16 76_1 76_11 0.933333
17 76_11 *83:A 0
*END
*D_NET *84 0.00091704
*CONN
*I *85:Q O *D DFFPOSX1
*I *86:A I *L 0.0265312
*I *87:A I *L 0.0265613
*I *88:B I *L 0.0268633
*I *89:A I *L 0.0134147
*I *90:A I *L 0.0180033
*I *91:A I *L 0.0177118
*CAP
1 84_1 0.00010752
2 84_2 0.00016968
3 84_3 4.08e-05
4 84_4 6.12e-05
5 84_5 6.744e-05
6 84_6 4.08e-05
7 84_7 0.00010752
8 84_8 0.00012168
9 84_9 0.0001428
10 84_10 5.76e-05
*RES
1 *85:Q 84_1 2.98667
2 84_1 84_2 2.38
3 84_2 *86:A 0
4 84_1 84_3 0.466667
5 84_3 84_4 0.7
6 84_4 *87:A 0
7 84_3 84_5 1.54
8 84_5 84_6 0.466667
9 84_6 *88:B 0
10 84_5 84_7 2.98667
11 84_7 84_8 2.38
12 84_8 *89:A 0
13 84_7 84_9 1.63333
14 84_9 *90:A 0
15 84_9 84_10 0.373333
16 84_10 *91:A 0
*END
*D_NET *92 0.0009072
*CONN
*I *93:Y O *D NAND3X1
*I *94:B I *L 0.0180112
*I *95:B I *L 0.0270702
*I *96:B I *L 0.0268633
*I *97:B I *L 0.0270702
*I *98:B I *L 0.0270702
*I *99:C I *L 0.0317844
*CAP
1 92_1 2.04e-05
2 92_2 0.0001428
3 92_3 0.00023664
4 92_4 2.04e-05
5 92_5 6.768e-05
6 92_6 0
7 92_7 8.784e-05
8 92_8 2.04e-05
9 92_9 3.36e-05
10 92_10 0
11 92_11 0.00027744
*RES
1 *93:Y 92_1 0.233333
2 92_1 92_2 1.63333
3 92_2 *94:B 0
4 92_1 92_3 4.57333
5 92_3 92_4 0.233333
6 92_4 *95:B 0
7 92_4 92_5 1.21333
8 92_5 92_6 0
9 92_6 *96:B 0
10 92_5 92_7 1.77333
11 92_7 92_8 0.233333
12 92_8 *97:B 0
13 92_8 92_9 0.933333
14 92_9 92_10 0
15 92_10 *98:B 0
16 92_10 92_11 3.17333
17 92_11 *99:C 0
*END
*D_NET *100 0.00111
*CONN
*I *101:Y O *D NOR2X1
*I *102:B I *L 0.0268633
*I *103:A I *L 0.0265613
*I *104:B I *L 0.0180112
*I *105:C I *L 0.0226301
*I *106:C I *L 0.0226301
*I *107:B I *L 0.0270702
*CAP
1 100_1 0.00028704
2 100_2 8.4e-06
3 100_3 0
4 100_4 0.0002244
5 100_5 6.12e-05
6 100_6 9.408e-05
7 100_7 4.08e-05
8 100_8 0.00022848
9 100_9 5.76e-05
10 100_10 3.36e-05
11 100_11 7.44e-05
*RES
1 *101:Y 100_1 4.29333
2 100_1 100_2 0.233333
3 100_2 100_3 0
4 100_3 *102:B 0
5 100_3 100_4 2.56667
6 100_4 100_5 0.7
7 100_5 *103:A 0
8 100_4 100_6 2.61333
9 100_6 100_7 0.466667
10 100_7 *104:B 0
11 100_6 100_8 6.34667
12 100_8 100_9 0.373333
13 100_9 *105:C 0
14 100_8 100_10 0.933333
15 100_10 *106:C 0
16 100_2 100_11 1.4
17 100_11 *107:B 0
*END
*D_NET *108 0.00094824
*CONN
*I *109:Y O *D NAND3X1
*I *110:C I *L 0.0317844
*I *111:B I *L 0.0268633
*I *112:B I *L 0.0270702
*I *113:B I *L 0.0270702
*I *114:B I *L 0.0227534
*I *115:B I *L 0.0270702
*CAP
1 108_1 0.0003672
2 108_2 8.64e-05
3 108_3 4.032e-05
4 108_4 4.08e-05
5 108_5 2.04e-05
6 108_6 0.0001836
7 108_7 2.04e-05
8 108_8 0.0001152
9 108_9 4.032e-05
10 108_10 3.36e-05
*RES
1 *109:Y 108_1 4.2
2 108_1 108_2 0.56
3 108_2 *110:C 0
4 108_1 108_3 1.12
5 108_3 108_4 0.466667
6 108_4 108_5 0.233333
7 108_5 *111:B 0
8 108_5 108_6 2.1
9 108_6 108_7 0.233333
10 108_7 *112:B 0
11 108_7 108_8 0.746667
12 108_8 *113:B 0
13 108_7 108_9 1.12
14 108_9 *114:B 0
15 108_3 108_10 0.933333
16 108_10 *115:B 0
*END
*D_NET *116 0.00229464
*CONN
*P *116 O
*I *117:A I *L 0.0549205
*I *118:A I *L 0.0549205
*I *119:A I *L 0.0549205
*I *120:A I *L 0.0549205
*I *121:A I *L 0.0549205
*CAP
1 116_1 2.016e-05
2 116_2 0.00067968
3 116_3 2.04e-05
4 116_4 0.00108048
5 116_5 0
6 116_6 0.00011472
7 116_7 0.0001428
8 116_8 0.0001752
9 116_9 6.12e-05
*RES
1 *116 116_1 0.56
2 116_1 116_2 15.2133
3 116_2 116_3 0.233333
4 116_3 *117:A 0
5 116_3 116_4 13.3467
6 116_4 116_5 0
7 116_5 *118:A 0
8 116_5 116_6 2.52
9 116_6 116_7 1.63333
10 116_7 *119:A 0
11 116_6 116_8 4.2
12 116_8 *120:A 0
13 116_1 116_9 0.7
14 116_9 *121:A 0
*END
*D_NET *122 0.00093144
*CONN
*I *123:Y O *D INVX1
*I *124:A I *L 0.0134147
*I *125:A I *L 0.0134147
*I *126:A I *L 0.0134147
*I *127:A I *L 0.0134147
*I *128:A I *L 0.0134147
*CAP
1 122_1 2.688e-05
2 122_2 0.000102
3 122_3 0.0001428
4 122_4 2.688e-05
5 122_5 4.08e-05
6 122_6 5.376e-05
7 122_7 0.00012816
8 122_8 0.0002244
9 122_9 0.00018576
*RES
1 *123:Y 122_1 0.746667
2 122_1 122_2 1.16667
3 122_2 *124:A 0
4 122_1 122_3 1.63333
5 122_3 122_4 0.746667
6 122_4 122_5 0.466667
7 122_5 *125:A 0
8 122_4 122_6 1.49333
9 122_6 122_7 2.89333
10 122_7 *126:A 0
11 122_6 122_8 2.56667
12 122_8 *127:A 0
13 122_3 122_9 3.26667
14 122_9 *128:A 0
*END
*D_NET *129 0.0010452
*CONN
*I *130:Y O *D BUFX2
*I *131:C I *L 0.0180101
*I *132:A I *L 0.0180033
*I *133:C I *L 0.0180101
*I *134:C I *L 0.0180101
*I *135:C I *L 0.0180101
*CAP
1 129_1 0.00014928
2 129_2 6.12e-05
3 129_3 6.72e-05
4 129_4 0
5 129_5 0.000204
6 129_6 2.04e-05
7 129_7 0.000258
8 129_8 0.00028512
*RES
1 *130:Y 129_1 2.14667
2 129_1 129_2 0.7
3 129_2 *131:C 0
4 129_1 129_3 1.86667
5 129_3 129_4 0
6 129_4 *132:A 0
7 129_4 129_5 2.33333
8 129_5 129_6 0.233333
9 129_6 *133:C 0
10 129_6 129_7 3.5
11 129_7 *134:C 0
12 129_3 129_8 3.92
13 129_8 *135:C 0
*END
*D_NET *136 0.00096144
*CONN
*I *137:Y O *D BUFX2
*I *138:A I *L 0.0177118
*I *139:C I *L 0.0180101
*I *140:C I *L 0.0180101
*I *141:C I *L 0.0180101
*I *142:C I *L 0.0180101
*CAP
1 136_1 0.0001224
2 136_2 2.04e-05
3 136_3 0.00032496
4 136_4 6.12e-05
5 136_5 5.376e-05
6 136_6 6.12e-05
7 136_7 5.376e-05
8 136_8 6.12e-05
9 136_9 0.00020256
*RES
1 *137:Y 136_1 1.4
2 136_1 136_2 0.233333
3 136_2 *138:A 0
4 136_2 136_3 5.69333
5 136_3 136_4 0.7
6 136_4 *139:C 0
7 136_3 136_5 1.49333
8 136_5 136_6 0.7
9 136_6 *140:C 0
10 136_5 136_7 1.49333
11 136_7 136_8 0.7
12 136_8 *141:C 0
13 136_7 136_9 1.82667
14 136_9 *142:C 0
*END
*D_NET *143 0.00081984
*CONN
*I *144:Y O *D BUFX2
*I *145:C I *L 0.0180101
*I *146:C I *L 0.0180101
*I *147:C I *L 0.0180101
*I *148:C I *L 0.0180101
*I *149:B I *L 0.0177358
*CAP
1 143_1 5.76e-05
2 143_2 0.0002448
3 143_3 0.000204
4 143_4 5.76e-05
5 143_5 0.000168
6 143_6 0
7 143_7 8.784e-05
*RES
1 *144:Y 143_1 0.373333
2 143_1 *145:C 0
3 143_1 143_2 2.8
4 143_2 143_3 2.33333
5 143_3 *146:C 0
6 143_3 143_4 0.373333
7 143_4 *147:C 0
8 143_2 143_5 4.66667
9 143_5 143_6 0
10 143_6 *148:C 0
11 143_5 143_7 1.77333
12 143_7 *149:B 0
*END
*D_NET *150 0.00078456
*CONN
*I *151:Y O *D BUFX2
*I *152:A I *L 0.0177118
*I *153:C I *L 0.0180101
*I *154:A I *L 0.0177118
*I *155:C I *L 0.0180101
*I *156:A I *L 0.0177118
*CAP
1 150_1 0.00010848
2 150_2 6.12e-05
3 150_3 0.00012888
4 150_4 2.04e-05
5 150_5 0.000204
6 150_6 9.384e-05
7 150_7 7.392e-05
8 150_8 0
9 150_9 9.384e-05
*RES
1 *151:Y 150_1 1.68
2 150_1 150_2 0.7
3 150_2 *152:A 0
4 150_1 150_3 1.91333
5 150_3 150_4 0.233333
6 150_4 *153:C 0
7 150_4 150_5 2.33333
8 150_5 150_6 1.07333
9 150_6 *154:A 0
10 150_5 150_7 2.05333
11 150_7 150_8 0
12 150_8 *155:C 0
13 150_8 150_9 1.07333
14 150_9 *156:A 0
*END
*D_NET *157 0.00082032
*CONN
*I *158:Y O *D AND2X2
*I *159:B I *L 0.0268633
*I *160:A I *L 0.0222369
*I *161:B I *L 0.0270702
*I *162:A I *L 0.0265613
*I *163:B I *L 0.022204
*CAP
1 157_1 8.4e-06
2 157_2 4.056e-05
3 157_3 4.08e-05
4 157_4 0.00019584
5 157_5 2.04e-05
6 157_6 0.00010176
7 157_7 3.36e-05
8 157_8 0
9 157_9 0.00037896
*RES
1 *158:Y 157_1 0.233333
2 157_1 157_2 0.793333
3 157_2 157_3 0.466667
4 157_3 *159:B 0
5 157_2 157_4 2.24
6 157_4 157_5 0.233333
7 157_5 *160:A 0
8 157_5 157_6 1.49333
9 157_6 *161:B 0
10 157_1 157_7 0.933333
11 157_7 157_8 0
12 157_8 *162:A 0
13 157_8 157_9 6.86
14 157_9 *163:B 0
*END
*D_NET *164 0.00103008
*CONN
*I *165:Q O *D DFFPOSX1
*I *166:A I *L 0.0134147
*I *167:A I *L 0.0222511
*I *168:A I *L 0.0134094
*I *169:C I *L 0.02277
*I *170:A I *L 0.0222511
*CAP
1 164_1 0.00033288
2 164_2 8.16e-05
3 164_3 0.00010776
4 164_4 0.0001632
5 164_5 4.704e-05
6 164_6 4.08e-05
7 164_7 0.0001416
8 164_8 2.04e-05
9 164_9 9.48e-05
*RES
1 *165:Q 164_1 4.24667
2 164_1 164_2 0.933333
3 164_2 *166:A 0
4 164_1 164_3 2.66
5 164_3 164_4 1.86667
6 164_4 *167:A 0
7 164_3 164_5 1.30667
8 164_5 164_6 0.466667
9 164_6 *168:A 0
10 164_5 164_7 3.26667
11 164_7 164_8 0.233333
12 164_8 *169:C 0
13 164_8 164_9 1.63333
14 164_9 *170:A 0
*END
*D_NET *171 0.00092808
*CONN
*I *172:Q O *D DFFPOSX1
*I *173:A I *L 0.0134147
*I *174:B I *L 0.022204
*I *175:A I *L 0.0134094
*I *176:B I *L 0.0268633
*I *177:B I *L 0.022204
*CAP
1 171_1 0.00028512
2 171_2 0.000102
3 171_3 6.048e-05
4 171_4 0.0001224
5 171_5 0.00018216
6 171_6 2.04e-05
7 171_7 8.784e-05
8 171_8 0
9 171_9 6.768e-05
*RES
1 *172:Q 171_1 3.92
2 171_1 171_2 1.16667
3 171_2 *173:A 0
4 171_1 171_3 1.68
5 171_3 171_4 1.4
6 171_4 *174:B 0
7 171_3 171_5 4.06
8 171_5 171_6 0.233333
9 171_6 *175:A 0
10 171_6 171_7 1.77333
11 171_7 171_8 0
12 171_8 *176:B 0
13 171_7 171_9 1.21333
14 171_9 *177:B 0
*END
*D_NET *178 0.00075744
*CONN
*I *179:Q O *D DFFPOSX1
*I *180:A I *L 0.0265613
*I *181:B I *L 0.0268633
*I *182:A I *L 0.0177118
*I *183:A I *L 0.0265312
*I *184:A I *L 0.0134147
*CAP
1 178_1 0.00023064
2 178_2 4.08e-05
3 178_3 6.048e-05
4 178_4 5.376e-05
5 178_5 8.4e-06
6 178_6 0
7 178_7 5.76e-05
8 178_8 0.00030576
*RES
1 *179:Q 178_1 3.40667
2 178_1 178_2 0.466667
3 178_2 *180:A 0
4 178_1 178_3 1.68
5 178_3 178_4 1.49333
6 178_4 *181:B 0
7 178_3 178_5 0.233333
8 178_5 178_6 0
9 178_6 *182:A 0
10 178_6 178_7 0.373333
11 178_7 *183:A 0
12 178_6 178_8 3.82667
13 178_8 *184:A 0
*END
*D_NET *185 0.00080352
*CONN
*I *186:Q O *D DFFPOSX1
*I *187:A I *L 0.0134147
*I *188:A I *L 0.0177118
*I *189:B I *L 0.0268633
*I *190:A I *L 0.0265613
*I *191:A I *L 0.0265312
*CAP
1 185_1 4.704e-05
2 185_2 6.12e-05
3 185_3 0.0003672
4 185_4 2.04e-05
5 185_5 6.768e-05
6 185_6 4.08e-05
7 185_7 7.392e-05
8 185_8 0
9 185_9 0.00012528
*RES
1 *186:Q 185_1 1.30667
2 185_1 185_2 0.7
3 185_2 *187:A 0
4 185_1 185_3 4.2
5 185_3 185_4 0.233333
6 185_4 *188:A 0
7 185_4 185_5 1.21333
8 185_5 185_6 0.466667
9 185_6 *189:B 0
10 185_5 185_7 2.05333
11 185_7 185_8 0
12 185_8 *190:A 0
13 185_7 185_9 1.58667
14 185_9 *191:A 0
*END
*D_NET *192 0.0008004
*CONN
*I *193:Q O *D DFFPOSX1
*I *194:A I *L 0.0134147
*I *195:A I *L 0.0265613
*I *196:A I *L 0.0265312
*I *197:B I *L 0.0268633
*I *198:A I *L 0.0177118