*SPEF "IEEE 1481.1999"
*DESIGN "sigmoid_approx"
*DATE "13:27:20 Wednesday May 04, 2022"
*VENDOR "unknown"
*PROGRAM "qrouter"
*VERSION "unknown"
*DESIGN_FLOW "qflow"
*DIVIDER /
*DELIMITER :
*BUS_DELIMITER <>
*T_UNIT 1 PS
*C_UNIT 1 FF
*R_UNIT 1 OHM
*L_UNIT 1 HENRY

*NAME_MAP
*1 _2_
*2 AOI21X1_1
*3 NOR3X1_8
*4 NOR3X1_9
*5 NOR3X1_4
*6 NOR3X1_5
*7 NOR3X1_12
*8 NOR3X1_14
*9 NOR3X1_18
*10 NOR3X1_15
*11 NOR3X1_17
*12 NOR3X1_16
*13 NOR3X1_10
*14 NOR3X1_6
*15 NOR3X1_11
*16 NOR3X1_13
*17 NOR3X1_7
*18 _79_
*19 NOR2X1_5
*20 NAND2X1_18
*21 NAND2X1_20
*22 NAND3X1_5
*23 AOI21X1_5
*24 NAND3X1_3
*25 NAND3X1_8
*26 NAND3X1_1
*27 Y[31_bF_buf3]
*28 BUFX2_5
*29 NAND2X1_17
*30 NOR2X1_21
*31 OAI21X1_13
*32 INVX1_1
*33 NOR2X1_20
*34 AOI21X1_4
*35 _94_
*36 NAND3X1_1
*37 AOI22X1_1
*38 OR2X2_2
*39 OAI21X1_6
*40 NOR3X1_3
*41 XNOR2X1_3
*42 NOR3X1_1
*43 _39__bF_buf3
*44 BUFX2_1
*45 NOR2X1_21
*46 NOR3X1_10
*47 NOR3X1_12
*48 NOR3X1_18
*49 NOR3X1_14
*50 Y[31_bF_buf2]
*51 BUFX2_6
*52 OAI21X1_10
*53 OAI21X1_14
*54 AOI22X1_2
*55 NAND3X1_4
*56 NAND3X1_9
*57 Y[31_bF_buf1]
*58 BUFX2_7
*59 OAI21X1_11
*60 NAND2X1_15
*61 OAI21X1_15
*62 OAI21X1_4
*63 OAI21X1_7
*64 Y[31_bF_buf0]
*65 BUFX2_8
*66 OAI21X1_9
*67 NAND2X1_19
*68 OAI21X1_16
*69 NAND3X1_6
*70 OAI21X1_8
*71 _72_
*72 INVX1_1
*73 OAI21X1_12
*74 AOI21X1_1
*75 OAI21X1_17
*76 AOI21X1_5
*77 AND2X2_10
*78 _86_
*79 NOR2X1_10
*80 NAND3X1_5
*81 AOI21X1_5
*82 NAND3X1_3
*83 NAND3X1_8
*84 NAND3X1_1
*85 _39_
*86 NAND3X1_10
*87 BUFX2_2
*88 BUFX2_1
*89 BUFX2_4
*90 BUFX2_3
*91 _39__bF_buf2
*92 BUFX2_2
*93 NOR3X1_8
*94 NOR3X1_9
*95 NOR3X1_4
*96 NOR3X1_5
*97 _39__bF_buf1
*98 BUFX2_3
*99 NOR3X1_15
*100 NOR3X1_17
*101 AND2X2_10
*102 NOR3X1_16
*103 _39__bF_buf0
*104 BUFX2_4
*105 NOR3X1_7
*106 NOR3X1_6
*107 NOR3X1_11
*108 NOR3X1_13
*109 Y[31]
*110 BUFX2_6
*111 BUFX2_8
*112 BUFX2_7
*113 BUFX2_5
*114 _75_
*115 NAND2X1_1
*116 OAI21X1_9
*117 NAND2X1_15
*118 NOR2X1_5
*119 OAI21X1_11
*120 Y[17]
*121 AOI21X1_4
*122 NOR2X1_11
*123 OAI21X1_4
*124 NAND3X1_6
*125 Y[18]
*126 NOR2X1_12
*127 OAI21X1_8
*128 INVX1_8
*129 NAND2X1_13
*130 _90_
*131 NOR2X1_13
*132 NAND2X1_6
*133 INVX1_4
*134 AND2X2_6
*135 MUX2X1_1
*136 Y[26]
*137 NOR3X1_3
*138 OAI21X1_3
*139 OR2X2_1
*140 INVX1_6
*141 _98_
*142 NOR2X1_17
*143 NAND2X1_12
*144 NAND3X1_7
*145 INVX1_3
*146 AOI21X1_3
*147 Y[4]
*148 NOR2X1_3
*149 OAI21X1_9
*150 XOR2X1_1
*151 _76_
*152 NOR2X1_3
*153 NAND2X1_16
*154 AND2X2_2
*155 NAND2X1_2
*156 Y[6]
*157 OAI21X1_10
*158 XOR2X1_3
*159 NOR2X1_4
*160 _80_
*161 NOR2X1_6
*162 NAND2X1_18
*163 AND2X2_3
*164 NAND2X1_3
*165 Y[10]
*166 XOR2X1_5
*167 OAI21X1_13
*168 NOR2X1_7
*169 Y[12]
*170 NOR2X1_8
*171 OAI21X1_15
*172 XOR2X1_7
*173 _83_
*174 NOR2X1_8
*175 INVX1_13
*176 NAND2X1_4
*177 AND2X2_4
*178 Y[16]
*179 XNOR2X1_1
*180 NOR2X1_11
*181 INVX1_9
*182 _87_
*183 NOR2X1_11
*184 NAND3X1_3
*185 AND2X2_5
*186 NAND2X1_5
*187 Y[20]
*188 NOR2X1_14
*189 INVX1_5
*190 XNOR2X1_4
*191 Y[24]
*192 NOR2X1_16
*193 OAI21X1_6
*194 XNOR2X1_3
*195 _96_
*196 INVX1_2
*197 OR2X2_2
*198 NOR2X1_17
*199 NOR3X1_3
*200 Y[28]
*201 NOR2X1_20
*202 NOR3X1_1
*203 INVX1_7
*204 _100_
*205 NOR3X1_1
*206 OAI21X1_1
*207 NAND2X1_8
*208 OAI22X1_1
*209 _109_
*210 NAND2X1_9
*211 OAI21X1_14
*212 NOR3X1_2
*213 NOR2X1_19
*214 _114_
*215 AND2X2_5
*216 NAND3X1_8
*217 NAND3X1_2
*218 NAND2X1_11
*219 _119_
*220 NOR3X1_2
*221 AOI21X1_3
*222 AOI21X1_2
*223 NAND2X1_12
*224 _13_
*225 NAND3X1_5
*226 OAI21X1_4
*227 AOI21X1_4
*228 NAND3X1_6
*229 _73_
*230 NOR2X1_1
*231 AND2X2_1
*232 NAND2X1_1
*233 _74_
*234 NOR2X1_2
*235 AND2X2_1
*236 NAND2X1_1
*237 Y[5]
*238 NOR2X1_3
*239 XOR2X1_2
*240 Y[7]
*241 NOR2X1_4
*242 XOR2X1_4
*243 _77_
*244 NOR2X1_4
*245 AND2X2_2
*246 NAND2X1_2
*247 _78_
*248 NAND2X1_2
*249 NOR2X1_5
*250 OAI21X1_11
*251 Y[8]
*252 NOR2X1_6
*253 INVX1_11
*254 Y[9]
*255 XNOR2X1_6
*256 NOR2X1_6
*257 Y[11]
*258 XOR2X1_6
*259 NOR2X1_7
*260 _81_
*261 NOR2X1_7
*262 NAND2X1_3
*263 AND2X2_3
*264 _82_
*265 NAND2X1_3
*266 OAI21X1_14
*267 NOR2X1_10
*268 Y[13]
*269 XOR2X1_8
*270 NOR2X1_8
*271 Y[14]
*272 NOR2X1_9
*273 INVX1_12
*274 Y[15]
*275 NOR2X1_9
*276 XNOR2X1_8
*277 _84_
*278 NOR2X1_9
*279 AND2X2_4
*280 NAND2X1_4
*281 Y[19]
*282 NOR2X1_12
*283 XNOR2X1_2
*284 _88_
*285 NOR2X1_12
*286 NAND2X1_5
*287 AND2X2_5
*288 Y[21]
*289 NOR2X1_13
*290 AND2X2_8
*291 Y[22]
*292 NOR2X1_13
*293 AND2X2_8
*294 Y[23]
*295 NOR2X1_14
*296 OAI21X1_2
*297 _91_
*298 NOR2X1_14
*299 NAND2X1_6
*300 AND2X2_6
*301 Y[25]
*302 NOR2X1_16
*303 OAI21X1_6
*304 _95_
*305 NOR2X1_16
*306 INVX1_2
*307 AOI21X1_2
*308 Y[27]
*309 OR2X2_1
*310 OAI21X1_3
*311 Y[30]
*312 NOR2X1_18
*313 NAND2X1_7
*314 Y[29]
*315 NOR2X1_18
*316 NAND2X1_7
*317 _102_
*318 NOR2X1_18
*319 AND2X2_9
*320 NAND2X1_8
*321 _107_
*322 AND2X2_1
*323 NAND2X1_9
*324 NAND2X1_16
*325 _110_
*326 AND2X2_3
*327 NAND2X1_20
*328 NAND2X1_10
*329 _112_
*330 NAND2X1_10
*331 NOR3X1_2
*332 NOR2X1_19
*333 _115_
*334 NAND3X1_2
*335 MUX2X1_1
*336 OAI21X1_2
*337 _117_
*338 AND2X2_6
*339 NAND2X1_11
*340 NAND3X1_7
*341 _121_
*342 OR2X2_2
*343 OAI21X1_3
*344 AND2X2_7
*345 _10_
*346 NAND3X1_3
*347 OAI21X1_8
*348 NAND3X1_4
*349 _16_
*350 NAND2X1_14
*351 INVX1_14
*352 AOI22X1_2
*353 _18_
*354 INVX1_10
*355 OAI21X1_5
*356 OR2X2_3
*357 _19_
*358 AOI21X1_4
*359 OAI21X1_5
*360 OR2X2_3
*361 _21_
*362 XNOR2X1_1
*363 OAI21X1_5
*364 NOR3X1_16
*365 _44_
*366 NAND2X1_16
*367 OAI21X1_10
*368 NAND2X1_17
*369 _49_
*370 INVX1_11
*371 XNOR2X1_5
*372 OAI21X1_12
*373 _50_
*374 OAI21X1_11
*375 XNOR2X1_5
*376 OAI21X1_12
*377 _54_
*378 NAND2X1_18
*379 NAND2X1_19
*380 OAI21X1_13
*381 _61_
*382 NAND2X1_20
*383 OAI21X1_16
*384 OAI21X1_15
*385 _64_
*386 INVX1_12
*387 OAI21X1_17
*388 XNOR2X1_7
*389 _66_
*390 OAI21X1_16
*391 XNOR2X1_7
*392 OAI21X1_17
*393 Y[0]
*394 NOR2X1_1
*395 Y[3]
*396 NOR2X1_1
*397 Y[1]
*398 NOR2X1_2
*399 Y[2]
*400 NOR2X1_2
*401 _85_
*402 NAND2X1_4
*403 NOR2X1_10
*404 _89_
*405 NAND2X1_5
*406 NOR2X1_15
*407 _92_
*408 NAND2X1_6
*409 NOR2X1_15
*410 _93_
*411 NOR2X1_15
*412 NAND3X1_1
*413 _97_
*414 OR2X2_1
*415 NOR2X1_17
*416 _99_
*417 INVX1_3
*418 NOR3X1_1
*419 _101_
*420 NAND2X1_7
*421 OAI21X1_1
*422 _103_
*423 NAND2X1_8
*424 OAI21X1_1
*425 _104_
*426 OAI21X1_1
*427 AOI21X1_1
*428 _105_
*429 INVX1_4
*430 OAI21X1_2
*431 _106_
*432 INVX1_5
*433 NAND3X1_2
*434 _108_
*435 AND2X2_2
*436 NAND2X1_9
*437 _111_
*438 AND2X2_4
*439 NAND2X1_10
*440 _113_
*441 NOR2X1_19
*442 NAND3X1_2
*443 _116_
*444 OAI21X1_2
*445 AOI22X1_1
*446 _118_
*447 NAND2X1_11
*448 NOR3X1_2
*449 _120_
*450 NAND2X1_12
*451 AOI22X1_1
*452 _0_
*453 OAI21X1_3
*454 AOI22X1_1
*455 _1_
*456 AOI22X1_1
*457 AOI21X1_1
*458 _3_
*459 NOR3X1_3
*460 OAI22X1_1
*461 _4_
*462 INVX1_6
*463 AOI21X1_2
*464 _5_
*465 AOI21X1_2
*466 OAI22X1_1
*467 _6_
*468 INVX1_7
*469 AOI21X1_3
*470 _7_
*471 AOI21X1_3
*472 OAI22X1_1
*473 _8_
*474 OAI22X1_1
*475 AOI22X1_2
*476 _9_
*477 INVX1_8
*478 NAND3X1_4
*479 _11_
*480 NAND3X1_4
*481 NAND2X1_14
*482 _12_
*483 INVX1_9
*484 NAND3X1_5
*485 _14_
*486 OAI21X1_4
*487 NAND2X1_13
*488 _15_
*489 NAND2X1_13
*490 NAND2X1_14
*491 _17_
*492 NAND3X1_6
*493 INVX1_10
*494 _20_
*495 AOI21X1_5
*496 XNOR2X1_1
*497 _22_
*498 OAI21X1_5
*499 AOI22X1_2
*500 _23_
*501 AOI22X1_2
*502 NAND3X1_10
*503 _24_
*504 OAI21X1_6
*505 AND2X2_7
*506 _25_
*507 AND2X2_7
*508 OAI21X1_7
*509 _26_
*510 AND2X2_8
*511 MUX2X1_1
*512 _27_
*513 MUX2X1_1
*514 OAI21X1_7
*515 _28_
*516 OAI21X1_7
*517 NAND3X1_10
*518 _29_
*519 OAI21X1_8
*520 XNOR2X1_2
*521 _30_
*522 XNOR2X1_2
*523 AOI21X1_6
*524 _31_
*525 NOR2X1_20
*526 AND2X2_9
*527 _32_
*528 AND2X2_9
*529 NAND3X1_7
*530 _33_
*531 NAND3X1_7
*532 AOI21X1_6
*533 _34_
*534 XNOR2X1_3
*535 NAND3X1_9
*536 _35_
*537 NAND3X1_8
*538 XNOR2X1_4
*539 _36_
*540 XNOR2X1_4
*541 NAND3X1_9
*542 _37_
*543 NAND3X1_9
*544 AOI21X1_6
*545 _38_
*546 AOI21X1_6
*547 NAND3X1_10
*548 _40_
*549 NAND2X1_15
*550 XOR2X1_1
*551 _41_
*552 XOR2X1_1
*553 NOR3X1_4
*554 _122_[0]
*555 NOR3X1_4
*556 BUFX2_9
*557 _42_
*558 OAI21X1_9
*559 XOR2X1_2
*560 _43_
*561 XOR2X1_2
*562 NOR3X1_5
*563 _122_[1]
*564 NOR3X1_5
*565 BUFX2_10
*566 _45_
*567 NAND2X1_17
*568 XOR2X1_3
*569 _46_
*570 XOR2X1_3
*571 NOR3X1_6
*572 _122_[2]
*573 NOR3X1_6
*574 BUFX2_11
*575 _47_
*576 OAI21X1_10
*577 XOR2X1_4
*578 _48_
*579 XOR2X1_4
*580 NOR3X1_7
*581 _122_[3]
*582 NOR3X1_7
*583 BUFX2_12
*584 _51_
*585 XNOR2X1_5
*586 NOR3X1_8
*587 _122_[4]
*588 NOR3X1_8
*589 BUFX2_13
*590 _52_
*591 OAI21X1_12
*592 XNOR2X1_6
*593 _53_
*594 XNOR2X1_6
*595 NOR3X1_9
*596 _122_[5]
*597 NOR3X1_9
*598 BUFX2_14
*599 _55_
*600 NAND2X1_19
*601 XOR2X1_5
*602 _56_
*603 XOR2X1_5
*604 NOR3X1_10
*605 _122_[6]
*606 NOR3X1_10
*607 BUFX2_15
*608 _57_
*609 OAI21X1_13
*610 XOR2X1_6
*611 _58_
*612 XOR2X1_6
*613 NOR3X1_11
*614 _122_[7]
*615 NOR3X1_11
*616 BUFX2_16
*617 _59_
*618 OAI21X1_14
*619 XOR2X1_7
*620 _60_
*621 XOR2X1_7
*622 NOR3X1_12
*623 _122_[8]
*624 NOR3X1_12
*625 BUFX2_17
*626 _62_
*627 OAI21X1_15
*628 XOR2X1_8
*629 _63_
*630 XOR2X1_8
*631 NOR3X1_13
*632 _122_[9]
*633 NOR3X1_13
*634 BUFX2_18
*635 _65_
*636 INVX1_13
*637 OAI21X1_16
*638 _67_
*639 XNOR2X1_7
*640 NOR3X1_14
*641 _122_[10]
*642 NOR3X1_14
*643 BUFX2_19
*644 _68_
*645 OAI21X1_17
*646 XNOR2X1_8
*647 _69_
*648 XNOR2X1_8
*649 NOR3X1_15
*650 _122_[11]
*651 NOR3X1_15
*652 BUFX2_20
*653 _122_[12]
*654 NOR3X1_16
*655 BUFX2_21
*656 _70_
*657 OR2X2_3
*658 NOR3X1_17
*659 _122_[13]
*660 NOR3X1_17
*661 BUFX2_22
*662 _71_
*663 INVX1_14
*664 NOR3X1_18
*665 _122_[14]
*666 NOR3X1_18
*667 BUFX2_23
*668 _122_[15]
*669 NOR2X1_21
*670 BUFX2_24
*671 _122_[16]
*672 AND2X2_10
*673 BUFX2_25
*674 O[0]
*675 BUFX2_9
*676 O[1]
*677 BUFX2_10
*678 O[2]
*679 BUFX2_11
*680 O[3]
*681 BUFX2_12
*682 O[4]
*683 BUFX2_13
*684 O[5]
*685 BUFX2_14
*686 O[6]
*687 BUFX2_15
*688 O[7]
*689 BUFX2_16
*690 O[8]
*691 BUFX2_17
*692 O[9]
*693 BUFX2_18
*694 O[10]
*695 BUFX2_19
*696 O[11]
*697 BUFX2_20
*698 O[12]
*699 BUFX2_21
*700 O[13]
*701 BUFX2_22
*702 O[14]
*703 BUFX2_23
*704 O[15]
*705 BUFX2_24
*706 O[16]
*707 BUFX2_25
*708 O[17]
*709 BUFX2_26
*710 O[18]
*711 BUFX2_27
*712 O[19]
*713 BUFX2_28
*714 O[20]
*715 BUFX2_29
*716 O[21]
*717 BUFX2_30
*718 O[22]
*719 BUFX2_31
*720 O[23]
*721 BUFX2_32
*722 O[24]
*723 BUFX2_33
*724 O[25]
*725 BUFX2_34
*726 O[26]
*727 BUFX2_35
*728 O[27]
*729 BUFX2_36
*730 O[28]
*731 BUFX2_37
*732 O[29]
*733 BUFX2_38
*734 O[30]
*735 BUFX2_39
*736 O[31]
*737 BUFX2_40

*PORTS
*109 I
*120 I
*125 I
*136 I
*147 I
*156 I
*165 I
*169 I
*178 I
*187 I
*191 I
*200 I
*237 I
*240 I
*251 I
*254 I
*257 I
*268 I
*271 I
*274 I
*281 I
*288 I
*291 I
*294 I
*301 I
*308 I
*311 I
*314 I
*393 I
*395 I
*397 I
*399 I
*674 O
*676 O
*678 O
*680 O
*682 O
*684 O
*686 O
*688 O
*690 O
*692 O
*694 O
*696 O
*698 O
*700 O
*702 O
*704 O
*706 O
*708 O
*710 O
*712 O
*714 O
*716 O
*718 O
*720 O
*722 O
*724 O
*726 O
*728 O
*730 O
*732 O
*734 O
*736 O

*D_NET *1 0.00361416
*CONN
*I *2:Y O *D AOI21X1
*I *3:A I *L 0.0310602
*I *4:A I *L 0.0310602
*I *5:A I *L 0.0310602
*I *6:A I *L 0.0310602
*I *7:A I *L 0.0310602
*I *8:A I *L 0.0310602
*I *9:A I *L 0.0310602
*I *10:A I *L 0.0310602
*I *11:A I *L 0.0310602
*I *12:A I *L 0.0310602
*I *13:A I *L 0.0310602
*I *14:A I *L 0.0310602
*I *15:A I *L 0.0310602
*I *16:A I *L 0.0310602
*I *17:A I *L 0.0310602
*CAP
1 1_1 0.00024936
2 1_2 0.00023328
3 1_3 0.0001068
4 1_4 0.0003264
5 1_5 5.376e-05
6 1_6 5.76e-05
7 1_7 0.00011808
8 1_8 0.0002016
9 1_9 6.12e-05
10 1_10 0.0001824
11 1_11 7.872e-05
12 1_12 9.84e-05
13 1_13 9.408e-05
14 1_14 0.000102
15 1_15 0.00010752
16 1_16 9.84e-05
17 1_17 8.064e-05
18 1_18 9.84e-05
19 1_19 0.00017592
20 1_20 0.000168
21 1_21 0.000102
22 1_22 2.688e-05
23 1_23 9.84e-05
24 1_24 8.064e-05
25 1_25 5.424e-05
26 1_26 2.04e-05
27 1_27 0.000102
28 1_28 0.00043704
*RES
1 *2:Y 1_1 5.92667
2 1_1 1_2 3.92
3 1_2 *3:A 0
4 1_2 1_3 0.793333
5 1_3 1_4 3.73333
6 1_4 *4:A 0
7 1_3 1_5 1.49333
8 1_5 1_6 0.373333
9 1_6 *5:A 0
10 1_5 1_7 2.05333
11 1_7 *6:A 0
12 1_1 1_8 1.4
13 1_8 1_9 0.7
14 1_9 *7:A 0
15 1_8 1_10 1.26667
16 1_10 1_11 1.38667
17 1_11 1_12 0.84
18 1_12 *8:A 0
19 1_11 1_13 2.61333
20 1_13 1_14 1.16667
21 1_14 *9:A 0
22 1_13 1_15 2.98667
23 1_15 1_16 0.84
24 1_16 *10:A 0
25 1_15 1_17 2.24
26 1_17 1_18 0.84
27 1_18 *11:A 0
28 1_17 1_19 3.22
29 1_19 *12:A 0
30 1_10 1_20 4.66667
31 1_20 1_21 1.16667
32 1_21 *13:A 0
33 1_20 1_22 0.746667
34 1_22 1_23 0.84
35 1_23 *14:A 0
36 1_22 1_24 2.24
37 1_24 1_25 0.84
38 1_25 *15:A 0
39 1_24 1_26 0.233333
40 1_26 1_27 1.16667
41 1_27 *16:A 0
42 1_26 1_28 4.71333
43 1_28 *17:A 0
*END
*D_NET *18 0.00141456
*CONN
*I *19:Y O *D NOR2X1
*I *20:B I *L 0.0180112
*I *21:B I *L 0.0180112
*I *22:B I *L 0.022204
*I *23:B I *L 0.0268633
*I *24:B I *L 0.022204
*I *25:B I *L 0.022204
*I *26:A I *L 0.0222511
*CAP
1 18_1 0.00037944
2 18_2 6.12e-05
3 18_3 7.392e-05
4 18_4 6.12e-05
5 18_5 0.0002016
6 18_6 4.08e-05
7 18_7 6.048e-05
8 18_8 0
9 18_9 0.00014904
10 18_10 0.000102
11 18_11 4.032e-05
12 18_12 0.000102
13 18_13 0.00014256
*RES
1 *19:Y 18_1 4.34
2 18_1 18_2 0.7
3 18_2 *20:B 0
4 18_1 18_3 2.05333
5 18_3 18_4 0.7
6 18_4 *21:B 0
7 18_3 18_5 5.6
8 18_5 18_6 0.466667
9 18_6 *22:B 0
10 18_5 18_7 1.68
11 18_7 18_8 0
12 18_8 *23:B 0
13 18_8 18_9 2.47333
14 18_9 18_10 1.16667
15 18_10 *24:B 0
16 18_9 18_11 1.12
17 18_11 18_12 1.16667
18 18_12 *25:B 0
19 18_11 18_13 1.96
20 18_13 *26:A 0
*END
*D_NET *27 0.00172776
*CONN
*I *28:Y O *D BUFX2
*I *29:A I *L 0.0177118
*I *30:A I *L 0.0222369
*I *31:C I *L 0.0180101
*I *32:A I *L 0.0134094
*I *33:A I *L 0.0222369
*I *34:B I *L 0.0268633
*CAP
1 27_1 0
2 27_2 2.688e-05
3 27_3 0
4 27_4 0.00017544
5 27_5 4.08e-05
6 27_6 0.0003672
7 27_7 0.000168
8 27_8 0
9 27_9 0.0001488
10 27_10 0.0003672
11 27_11 0.00043344
*RES
1 *28:Y 27_1 0
2 27_1 27_2 0.746667
3 27_2 27_3 0
4 27_3 *29:A 0
5 27_3 27_4 2.00667
6 27_4 *30:A 0
7 27_1 27_5 0.466667
8 27_5 27_6 4.2
9 27_6 *31:C 0
10 27_5 27_7 4.66667
11 27_7 27_8 0
12 27_8 *32:A 0
13 27_8 27_9 2.8
14 27_9 27_10 4.2
15 27_10 *33:A 0
16 27_9 27_11 6.97333
17 27_11 *34:B 0
*END
*D_NET *35 0.001488
*CONN
*I *36:Y O *D NAND3X1
*I *37:A I *L 0.0265618
*I *38:A I *L 0.0228068
*I *39:B I *L 0.0270702
*I *40:C I *L 0.0317844
*I *41:A I *L 0.0435905
*I *42:C I *L 0.0317844
*CAP
1 35_1 0.00020976
2 35_2 0.0002244
3 35_3 4.08e-05
4 35_4 2.04e-05
5 35_5 0.0002124
6 35_6 0.00010824
7 35_7 6.12e-05
8 35_8 0.00011136
9 35_9 0.00016872
10 35_10 5.76e-05
11 35_11 0.00027312
*RES
1 *36:Y 35_1 3.82667
2 35_1 35_2 2.56667
3 35_2 35_3 0.466667
4 35_3 35_4 0.233333
5 35_4 *37:A 0
6 35_4 35_5 2.56667
7 35_5 35_6 2.00667
8 35_6 35_7 0.7
9 35_7 *38:A 0
10 35_6 35_8 1.86667
11 35_8 *39:B 0
12 35_5 35_9 3.68667
13 35_9 *40:C 0
14 35_2 35_10 0.373333
15 35_10 *41:A 0
16 35_1 35_11 6.25333
17 35_11 *42:C 0
*END
*D_NET *43 0.00135264
*CONN
*I *44:Y O *D BUFX2
*I *45:B I *L 0.0227534
*I *46:C I *L 0.0317844
*I *47:C I *L 0.0317844
*I *48:C I *L 0.0317844
*I *49:C I *L 0.0317844
*CAP
1 43_1 8.4e-06
2 43_2 6.048e-05
3 43_3 7.464e-05
4 43_4 0.0003876
5 43_5 0.00012792
6 43_6 0.0001476
7 43_7 0.00015552
8 43_8 0.00021672
9 43_9 0.00017376
*RES
1 *44:Y 43_1 0.233333
2 43_1 43_2 1.68
3 43_2 43_3 1.07333
4 43_3 *45:B 0
5 43_2 43_4 4.43333
6 43_4 *46:C 0
7 43_1 43_5 3.22
8 43_5 43_6 1.26
9 43_6 *47:C 0
10 43_5 43_7 2.98667
11 43_7 43_8 3.68667
12 43_8 *48:C 0
13 43_7 43_9 1.62667
14 43_9 *49:C 0
*END
*D_NET *50 0.00087384
*CONN
*I *51:Y O *D BUFX2
*I *52:C I *L 0.0180101
*I *53:C I *L 0.0180101
*I *54:C I *L 0.0270661
*I *55:A I *L 0.0222511
*I *56:A I *L 0.0222511
*CAP
1 50_1 0.0001236
2 50_2 9.456e-05
3 50_3 0.00010752
4 50_4 4.08e-05
5 50_5 0.0001008
6 50_6 6.12e-05
7 50_7 8.064e-05
8 50_8 4.08e-05
9 50_9 0.00022392
*RES
1 *51:Y 50_1 0.98
2 50_1 50_2 1.96
3 50_2 *52:C 0
4 50_1 50_3 2.98667
5 50_3 50_4 0.466667
6 50_4 *53:C 0
7 50_3 50_5 2.8
8 50_5 50_6 0.7
9 50_6 *54:C 0
10 50_5 50_7 2.24
11 50_7 50_8 0.466667
12 50_8 *55:A 0
13 50_7 50_9 3.22
14 50_9 *56:A 0
*END
*D_NET *57 0.0013596
*CONN
*I *58:Y O *D BUFX2
*I *59:C I *L 0.0180101
*I *60:A I *L 0.0177118
*I *61:C I *L 0.0180101
*I *62:C I *L 0.0180101
*I *63:C I *L 0.0180101
*CAP
1 57_1 0.0001584
2 57_2 0.0001512
3 57_3 4.032e-05
4 57_4 0.00010152
5 57_5 8.064e-05
6 57_6 0.00021504
7 57_7 8.16e-05
8 57_8 0.00053088
*RES
1 *58:Y 57_1 1.46667
2 57_1 57_2 1.86667
3 57_2 57_3 1.12
4 57_3 *59:C 0
5 57_2 57_4 1.82
6 57_4 *60:A 0
7 57_1 57_5 0.84
8 57_5 *61:C 0
9 57_1 57_6 5.97333
10 57_6 57_7 0.933333
11 57_7 *62:C 0
12 57_6 57_8 8.14667
13 57_8 *63:C 0
*END
*D_NET *64 0.00174144
*CONN
*I *65:Y O *D BUFX2
*I *66:C I *L 0.0180101
*I *67:A I *L 0.0177118
*I *68:C I *L 0.0180101
*I *69:A I *L 0.0222511
*I *70:C I *L 0.0180101
*CAP
1 64_1 0.00042792
2 64_2 0.00025728
3 64_3 4.08e-05
4 64_4 8.112e-05
5 64_5 2.04e-05
6 64_6 0.00029616
7 64_7 9.456e-05
8 64_8 0.0005232
*RES
1 *65:Y 64_1 5.55333
2 64_1 64_2 4.48
3 64_2 *66:C 0
4 64_1 64_3 0.466667
5 64_3 *67:A 0
6 64_1 64_4 1.58667
7 64_4 64_5 0.233333
8 64_5 *68:C 0
9 64_5 64_6 7.56
10 64_6 64_7 1.96
11 64_7 *69:A 0
12 64_6 64_8 5.41333
13 64_8 *70:C 0
*END
*D_NET *71 0.00178032
*CONN
*I *72:Y O *D INVX1
*I *73:A I *L 0.0265312
*I *74:C I *L 0.02277
*I *75:A I *L 0.0265312
*I *76:C I *L 0.02277
*I *77:B I *L 0.0177358
*CAP
1 71_1 0.00038664
2 71_2 0.0002244
3 71_3 0.00018
4 71_4 0.00026328
5 71_5 0.000102
6 71_6 0.00017808
7 71_7 0.000204
8 71_8 0.00024192
*RES
1 *72:Y 71_1 5.74
2 71_1 71_2 2.56667
3 71_2 71_3 1.77333
4 71_3 *73:A 0
5 71_2 71_4 5.64667
6 71_4 *74:C 0
7 71_1 71_5 1.16667
8 71_5 *75:A 0
9 71_1 71_6 4.94667
10 71_6 71_7 2.33333
11 71_7 *76:C 0
12 71_6 71_8 3.92
13 71_8 *77:B 0
*END
*D_NET *78 0.0006768
*CONN
*I *79:Y O *D NOR2X1
*I *80:C I *L 0.0226301
*I *81:A I *L 0.0265613
*I *82:C I *L 0.0226301
*I *83:C I *L 0.0226301
*I *84:B I *L 0.022204
*CAP
1 78_1 8.736e-05
2 78_2 6.12e-05
3 78_3 6.048e-05
4 78_4 0
5 78_5 0.00032568
6 78_6 2.04e-05
7 78_7 2.688e-05
8 78_8 0
9 78_9 9.48e-05
*RES
1 *79:Y 78_1 2.42667
2 78_1 78_2 0.7
3 78_2 *80:C 0
4 78_1 78_3 1.68
5 78_3 78_4 0
6 78_4 *81:A 0
7 78_4 78_5 4.71333
8 78_5 78_6 0.233333
9 78_6 *82:C 0
10 78_6 78_7 0.746667
11 78_7 78_8 0
12 78_8 *83:C 0
13 78_7 78_9 1.63333
14 78_9 *84:B 0
*END
*D_NET *85 0.0009576
*CONN
*I *86:Y O *D NAND3X1
*I *87:A I *L 0.0134147
*I *88:A I *L 0.0134147
*I *89:A I *L 0.0134147
*I *90:A I *L 0.0134147
*CAP
1 85_1 0
2 85_2 0.00012096
3 85_3 0.000306
4 85_4 0.00020352
5 85_5 0.000144
6 85_6 0.00018312
*RES
1 *86:Y 85_1 0
2 85_1 85_2 3.36
3 85_2 85_3 3.5
4 85_3 *87:A 0
5 85_2 85_4 2.98667
6 85_4 *88:A 0
7 85_4 85_5 0.933333
8 85_5 *89:A 0
9 85_1 85_6 2.75333
10 85_6 *90:A 0
*END
*D_NET *91 0.00065472
*CONN
*I *92:Y O *D BUFX2
*I *93:C I *L 0.0317844
*I *94:C I *L 0.0317844
*I *95:C I *L 0.0317844
*I *96:C I *L 0.0317844
*CAP
1 91_1 0.00019584
2 91_2 8.64e-05
3 91_3 0.0002448
4 91_4 6.72e-05
5 91_5 0
6 91_6 6.048e-05
*RES
1 *92:Y 91_1 2.24
2 91_1 91_2 0.56
3 91_2 *93:C 0
4 91_1 91_3 2.8
5 91_3 *94:C 0
6 91_1 91_4 1.86667
7 91_4 91_5 0
8 91_5 *95:C 0
9 91_4 91_6 1.68
10 91_6 *96:C 0
*END
*D_NET *97 0.00091728
*CONN
*I *98:Y O *D BUFX2
*I *99:C I *L 0.0317844
*I *100:C I *L 0.0317844
*I *101:A I *L 0.0180033
*I *102:C I *L 0.0317844
*CAP
1 97_1 0.00049776
2 97_2 0
3 97_3 8.064e-05
4 97_4 0
5 97_5 9.456e-05
6 97_6 2.04e-05
7 97_7 0.00022392
*RES
1 *98:Y 97_1 8.49333
2 97_1 97_2 0
3 97_2 *99:C 0
4 97_1 97_3 2.24
5 97_3 97_4 0
6 97_4 *100:C 0
7 97_3 97_5 1.96
8 97_5 97_6 0.233333
9 97_6 *101:A 0
10 97_6 97_7 3.22
11 97_7 *102:C 0
*END
*D_NET *103 0.00084024
*CONN
*I *104:Y O *D BUFX2
*I *105:C I *L 0.0317844
*I *106:C I *L 0.0317844
*I *107:C I *L 0.0317844
*I *108:C I *L 0.0317844
*CAP
1 103_1 7.44e-05
2 103_2 7.392e-05
3 103_3 0.0002448
4 103_4 2.04e-05
5 103_5 9.408e-05
6 103_6 1.344e-05
7 103_7 0.0003192
*RES
1 *104:Y 103_1 1.4
2 103_1 103_2 2.05333
3 103_2 *105:C 0
4 103_1 103_3 2.8
5 103_3 103_4 0.233333
6 103_4 *106:C 0
7 103_4 103_5 2.61333
8 103_5 103_6 0.373333
9 103_6 *107:C 0
10 103_5 103_7 3.08
11 103_7 *108:C 0
*END
*D_NET *109 0.00035496
*CONN
*P *109 O
*I *110:A I *L 0.0134147
*I *111:A I *L 0.0134147
*I *112:A I *L 0.0134147
*I *113:A I *L 0.0134147
*CAP
1 109_1 0.0002016
2 109_2 6.048e-05
3 109_3 0
4 109_4 2.688e-05
5 109_5 5.76e-05
6 109_6 8.4e-06
*RES
1 *109 109_1 5.6
2 109_1 109_2 1.68
3 109_2 109_3 0
4 109_3 *110:A 0
5 109_2 109_4 0.746667
6 109_4 *111:A 0
7 109_4 109_5 0.373333
8 109_5 *112:A 0
9 109_1 109_6 0.233333
10 109_6 *113:A 0
*END
*D_NET *114 0.0005244
*CONN
*I *115:Y O *D NAND2X1
*I *116:B I *L 0.0270702
*I *117:B I *L 0.0180112
*I *118:A I *L 0.0222369
*I *119:A I *L 0.0265312
*CAP
1 114_1 0.00018984
2 114_2 0
3 114_3 9.408e-05
4 114_4 4.08e-05
5 114_5 0.00010128
6 114_6 4.08e-05
7 114_7 5.76e-05
*RES
1 *115:Y 114_1 2.94
2 114_1 114_2 0
3 114_2 *116:B 0
4 114_1 114_3 2.61333
5 114_3 114_4 0.466667
6 114_4 *117:B 0
7 114_3 114_5 2.14667
8 114_5 114_6 0.466667
9 114_6 *118:A 0
10 114_5 114_7 0.373333
11 114_7 *119:A 0
*END
*D_NET *120 0.000888
*CONN
*P *120 O
*I *121:C I *L 0.02277
*I *122:A I *L 0.0222369
*I *123:A I *L 0.0265312
*I *124:B I *L 0.022204
*CAP
1 120_1 0.00033864
2 120_2 2.04e-05
3 120_3 6.12e-05
4 120_4 0.0002856
5 120_5 2.04e-05
6 120_6 0.0001416
7 120_7 2.016e-05
*RES
1 *120 120_1 3.87333
2 120_1 120_2 0.233333
3 120_2 *121:C 0
4 120_2 120_3 0.7
5 120_3 120_4 3.26667
6 120_4 120_5 0.233333
7 120_5 *122:A 0
8 120_5 120_6 3.26667
9 120_6 *123:A 0
10 120_3 120_7 0.56
11 120_7 *124:B 0
*END
*D_NET *125 0.00052032
*CONN
*P *125 O
*I *126:A I *L 0.0222369
*I *127:A I *L 0.0265312
*I *128:A I *L 0.0134094
*I *129:A I *L 0.0177118
*CAP
1 125_1 7.392e-05
2 125_2 8.4e-06
3 125_3 0.00018144
4 125_4 4.08e-05
5 125_5 4.032e-05
6 125_6 0
7 125_7 0.00017544
*RES
1 *125 125_1 2.05333
2 125_1 125_2 0.233333
3 125_2 *126:A 0
4 125_1 125_3 5.04
5 125_3 125_4 0.466667
6 125_4 *127:A 0
7 125_3 125_5 1.12
8 125_5 125_6 0
9 125_6 *128:A 0
10 125_6 125_7 2.00667
11 125_7 *129:A 0
*END
*D_NET *130 0.00049032
*CONN
*I *131:Y O *D NOR2X1
*I *132:A I *L 0.0177118
*I *133:A I *L 0.0134094
*I *134:A I *L 0.0180033
*I *135:B I *L 0.0265339
*CAP
1 130_1 0.000102
2 130_2 7.344e-05
3 130_3 4.032e-05
4 130_4 0
5 130_5 5.712e-05
6 130_6 7.464e-05
7 130_7 0.0001428
*RES
1 *131:Y 130_1 1.16667
2 130_1 130_2 0.84
3 130_2 *132:A 0
4 130_1 130_3 1.12
5 130_3 130_4 0
6 130_4 *133:A 0
7 130_3 130_5 1.58667
8 130_5 130_6 1.07333
9 130_6 *134:A 0
10 130_5 130_7 1.63333
11 130_7 *135:B 0
*END
*D_NET *136 0.00042624
*CONN
*P *136 O
*I *137:A I *L 0.0310602
*I *138:A I *L 0.0265312
*I *139:A I *L 0.0228068
*I *140:A I *L 0.0134094
*CAP
1 136_1 0.000102
2 136_2 0.00015504
3 136_3 3.36e-05
4 136_4 4.92e-05
5 136_5 8.64e-05
*RES
1 *136 136_1 1.16667
2 136_1 *137:A 0
3 136_1 136_2 3.64
4 136_2 136_3 0.933333
5 136_3 *138:A 0
6 136_2 136_4 0.7
7 136_4 *139:A 0
8 136_1 136_5 0.56
9 136_5 *140:A 0
*END
*D_NET *141 0.00140904
*CONN
*I *142:Y O *D NOR2X1
*I *143:A I *L 0.0177118
*I *144:C I *L 0.0226301
*I *145:A I *L 0.0134094
*I *146:B I *L 0.0268633
*CAP
1 141_1 0.0004872
2 141_2 2.04e-05
3 141_3 0.00027816
4 141_4 0
5 141_5 0.00018264
6 141_6 0
7 141_7 0.00044064
*RES
1 *142:Y 141_1 4.57333
2 141_1 141_2 0.233333
3 141_2 *143:A 0
4 141_2 141_3 4.06
5 141_3 141_4 0
6 141_4 *144:C 0
7 141_4 141_5 3.40667
8 141_5 141_6 0
9 141_6 *145:A 0
10 141_6 141_7 5.04
11 141_7 *146:B 0
*END
*D_NET *147 0.0009696
*CONN
*P *147 O
*I *148:B I *L 0.0227534
*I *149:A I *L 0.0265312
*I *150:B I *L 0.0524749
*CAP
1 147_1 0.00016608
2 147_2 0.0004248
3 147_3 0.00014112
4 147_4 0.000102
5 147_5 0.0001356
*RES
1 *147 147_1 2.61333
2 147_1 147_2 4.57333
3 147_2 *148:B 0
4 147_1 147_3 3.92
5 147_3 147_4 1.16667
6 147_4 *149:A 0
7 147_3 147_5 2.1
8 147_5 *150:B 0
*END
*D_NET *151 0.00091296
*CONN
*I *152:Y O *D NOR2X1
*I *153:A I *L 0.0177118
*I *154:A I *L 0.0180033
*I *155:A I *L 0.0177118
*CAP
1 151_1 0.0005088
2 151_2 0.00034656
3 151_3 5.76e-05
*RES
1 *152:Y 151_1 7.46667
2 151_1 *153:A 0
3 151_1 151_2 4.29333
4 151_2 *154:A 0
5 151_1 151_3 0.373333
6 151_3 *155:A 0
*END
*D_NET *156 0.00054864
*CONN
*P *156 O
*I *157:A I *L 0.0265312
*I *158:B I *L 0.0524749
*I *159:A I *L 0.0222369
*CAP
1 156_1 0.0002436
2 156_2 8.088e-05
3 156_3 4.08e-05
4 156_4 0.00018336
5 156_5 0
*RES
1 *156 156_1 4.43333
2 156_1 156_2 1.91333
3 156_2 156_3 0.466667
4 156_3 *157:A 0
5 156_2 156_4 2.42667
6 156_4 *158:B 0
7 156_1 156_5 0
8 156_5 *159:A 0
*END
*D_NET *160 0.00112944
*CONN
*I *161:Y O *D NOR2X1
*I *162:A I *L 0.0177118
*I *163:A I *L 0.0180033
*I *164:A I *L 0.0177118
*CAP
1 160_1 0.00092064
2 160_2 4.08e-05
3 160_3 3.36e-05
4 160_4 6.096e-05
5 160_5 7.344e-05
*RES
1 *161:Y 160_1 11.0133
2 160_1 160_2 0.466667
3 160_2 *162:A 0
4 160_1 160_3 0.933333
5 160_3 160_4 1.02667
6 160_4 *163:A 0
7 160_3 160_5 0.84
8 160_5 *164:A 0
*END
*D_NET *165 0.00053472
*CONN
*P *165 O
*I *166:B I *L 0.0524749
*I *167:A I *L 0.0265312
*I *168:A I *L 0.0222369
*CAP
1 165_1 0.0001836
2 165_2 2.04e-05
3 165_3 0.0001632
4 165_4 0.00010656
5 165_5 6.096e-05
*RES
1 *165 165_1 2.1
2 165_1 165_2 0.233333
3 165_2 *166:B 0
4 165_2 165_3 1.86667
5 165_3 165_4 1.12
6 165_4 *167:A 0
7 165_3 165_5 1.02667
8 165_5 *168:A 0
*END
*D_NET *169 0.00070344
*CONN
*P *169 O
*I *170:A I *L 0.0222369
*I *171:A I *L 0.0265312
*I *172:B I *L 0.0524749
*CAP
1 169_1 0.00025128
2 169_2 2.04e-05
3 169_3 0.00016968
4 169_4 3.36e-05
5 169_5 0.00022848
*RES
1 *169 169_1 3.31333
2 169_1 169_2 0.233333
3 169_2 *170:A 0
4 169_2 169_3 2.38
5 169_3 169_4 0.933333
6 169_4 *171:A 0
7 169_3 169_5 2.14667
8 169_5 *172:B 0
*END
*D_NET *173 0.00036576
*CONN
*I *174:Y O *D NOR2X1
*I *175:A I *L 0.0134094
*I *176:A I *L 0.0177118
*I *177:A I *L 0.0180033
*CAP
1 173_1 2.04e-05
2 173_2 0.000102
3 173_3 0.00013488
4 173_4 4.08e-05
5 173_5 6.768e-05
*RES
1 *174:Y 173_1 0.233333
2 173_1 173_2 1.16667
3 173_2 *175:A 0
4 173_1 173_3 3.08
5 173_3 173_4 0.466667
6 173_4 *176:A 0
7 173_3 173_5 1.21333
8 173_5 *177:A 0
*END
*D_NET *178 0.00045984
*CONN
*P *178 O
*I *179:B I *L 0.0524659
*I *180:B I *L 0.0227534
*I *181:A I *L 0.0134094
*CAP
1 178_1 0.00016872
2 178_2 0
3 178_3 9.456e-05
4 178_4 2.04e-05
5 178_5 0.00017616
*RES
1 *178 178_1 3.68667
2 178_1 178_2 0
3 178_2 *179:B 0
4 178_2 178_3 1.96
5 178_3 178_4 0.233333
6 178_4 *180:B 0
7 178_4 178_5 2.89333
8 178_5 *181:A 0
*END
*D_NET *182 0.00044064
*CONN
*I *183:Y O *D NOR2X1
*I *184:A I *L 0.0222511
*I *185:A I *L 0.0180033
*I *186:A I *L 0.0177118
*CAP
1 182_1 7.8e-05
2 182_2 0.0001836
3 182_3 0.00012144
4 182_4 5.76e-05
*RES
1 *183:Y 182_1 0.606667
2 182_1 182_2 2.1
3 182_2 *184:A 0
4 182_1 182_3 2.70667
5 182_3 *185:A 0
6 182_3 182_4 0.373333
7 182_4 *186:A 0
*END
*D_NET *187 0.00048408
*CONN
*P *187 O
*I *188:A I *L 0.0222369
*I *189:A I *L 0.0134094
*I *190:B I *L 0.0524659
*CAP
1 187_1 7.728e-05
2 187_2 4.08e-05
3 187_3 0.0002364
4 187_4 0.0001296
*RES
1 *187 187_1 2.14667
2 187_1 187_2 0.466667
3 187_2 *188:A 0
4 187_1 187_3 4.9
5 187_3 *189:A 0
6 187_3 187_4 0.84
7 187_4 *190:B 0
*END
*D_NET *191 0.0005436
*CONN
*P *191 O
*I *192:A I *L 0.0222369
*I *193:A I *L 0.0265312
*I *194:B I *L 0.0524659
*CAP
1 191_1 0.00013464
2 191_2 2.04e-05
3 191_3 4.92e-05
4 191_4 2.688e-05
5 191_5 0.00031248
*RES
1 *191 191_1 1.54
2 191_1 191_2 0.233333
3 191_2 *192:A 0
4 191_2 191_3 0.7
5 191_3 191_4 0.746667
6 191_4 *193:A 0
7 191_3 191_5 4.01333
8 191_5 *194:B 0
*END
*D_NET *195 0.00044184
*CONN
*I *196:Y O *D INVX1
*I *197:B I *L 0.0221869
*I *198:B I *L 0.0227534
*I *199:B I *L 0.0311174
*CAP
1 195_1 0.00013152
2 195_2 0.0001152
3 195_3 0
4 195_4 0.00019512
*RES
1 *196:Y 195_1 2.42667
2 195_1 195_2 0.746667
3 195_2 *197:B 0
4 195_1 195_3 0
5 195_3 *198:B 0
6 195_3 195_4 3.22
7 195_4 *199:B 0
*END
*D_NET *200 0.00072888
*CONN
*P *200 O
*I *201:B I *L 0.0227534
*I *202:A I *L 0.0310602
*I *203:A I *L 0.0134094
*CAP
1 200_1 0.000102
2 200_2 0.00035304
3 200_3 2.04e-05
4 200_4 0.0002208
5 200_5 3.264e-05
*RES
1 *200 200_1 1.16667
2 200_1 200_2 4.80667
3 200_2 200_3 0.233333
4 200_3 *201:B 0
5 200_3 200_4 2.24
6 200_4 *202:A 0
7 200_1 200_5 0.373333
8 200_5 *203:A 0
*END
*D_NET *204 0.00072984
*CONN
*I *205:Y O *D NOR3X1
*I *206:A I *L 0.0265312
*I *207:B I *L 0.0180112
*I *208:C I *L 0.026839
*CAP
1 204_1 0.00025608
2 204_2 2.04e-05
3 204_3 9.384e-05
4 204_4 2.04e-05
5 204_5 0.00033912
*RES
1 *205:Y 204_1 2.94
2 204_1 204_2 0.233333
3 204_2 *206:A 0
4 204_2 204_3 1.07333
5 204_3 204_4 0.233333
6 204_4 *207:B 0
7 204_4 204_5 5.08667
8 204_5 *208:C 0
*END
*D_NET *209 0.00073584
*CONN
*I *210:Y O *D NAND2X1
*I *211:B I *L 0.0270702
*I *212:A I *L 0.0310602
*I *213:A I *L 0.0222369
*CAP
1 209_1 0.00027624
2 209_2 0.0001224
3 209_3 0.0002508
4 209_4 8.64e-05
*RES
1 *210:Y 209_1 6.67333
2 209_1 209_2 1.4
3 209_2 *211:B 0
4 209_1 209_3 3.96667
5 209_3 *212:A 0
6 209_3 209_4 0.56
7 209_4 *213:A 0
*END
*D_NET *214 0.00092136
*CONN
*I *215:Y O *D AND2X2
*I *216:A I *L 0.0222511
*I *217:B I *L 0.022204
*I *218:A I *L 0.0177118
*CAP
1 214_1 0.00021624
2 214_2 2.04e-05
3 214_3 0.0002436
4 214_4 0.0001224
5 214_5 0.00031872
*RES
1 *215:Y 214_1 2.47333
2 214_1 214_2 0.233333
3 214_2 *216:A 0
4 214_2 214_3 4.43333
5 214_3 214_4 1.4
6 214_4 *217:B 0
7 214_3 214_5 4.85333
8 214_5 *218:A 0
*END
*D_NET *219 0.00067752
*CONN
*I *220:Y O *D NOR3X1
*I *221:A I *L 0.0265613
*I *222:A I *L 0.0265613
*I *223:B I *L 0.0180112
*CAP
1 219_1 0.00025104
2 219_2 0.000204
3 219_3 2.04e-05
4 219_4 4.704e-05
5 219_5 0.00015504
*RES
1 *220:Y 219_1 3.64
2 219_1 219_2 2.33333
3 219_2 219_3 0.233333
4 219_3 *221:A 0
5 219_3 219_4 1.30667
6 219_4 *222:A 0
7 219_1 219_5 3.64
8 219_5 *223:B 0
*END
*D_NET *224 0.00043872
*CONN
*I *225:Y O *D NAND3X1
*I *226:B I *L 0.0270702
*I *227:A I *L 0.0265613
*I *228:C I *L 0.0226301
*CAP
1 224_1 0.00018288
2 224_2 8.64e-05
3 224_3 8.16e-05
4 224_4 8.784e-05
*RES
1 *225:Y 224_1 3.08
2 224_1 224_2 0.56
3 224_2 *226:B 0
4 224_1 224_3 0.933333
5 224_3 *227:A 0
6 224_1 224_4 1.77333
7 224_4 *228:C 0
*END
*D_NET *229 0.0001248
*CONN
*I *230:Y O *D NOR2X1
*I *231:A I *L 0.0180033
*I *232:A I *L 0.0177118
*CAP
1 229_1 9.12e-05
2 229_2 0
3 229_3 3.36e-05
*RES
1 *230:Y 229_1 1.30667
2 229_1 229_2 0
3 229_2 *231:A 0
4 229_1 229_3 0.933333
5 229_3 *232:A 0
*END
*D_NET *233 0.0003048
*CONN
*I *234:Y O *D NOR2X1
*I *235:B I *L 0.0177358
*I *236:B I *L 0.0180112
*CAP
1 233_1 0.00022368
2 233_2 0
3 233_3 8.112e-05
*RES
1 *234:Y 233_1 3.54667
2 233_1 233_2 0